THERMO ALL
       100       500      1500
! ------------------------------------------------------------------------------
!  Gas Species
! ------------------------------------------------------------------------------
H2O             20180216C   0O   1H   2N   0G      200.     1600.     600.     1
   3.777500E+00   4.035551E-04   1.270792E-06  -5.322476E-10   4.346199E-14    2
  -3.023592E+04   1.025161E+00   4.185821E+00  -1.877402E-03   5.812323E-06    3
  -4.150020E-09   8.677614E-13  -3.029293E+04  -8.019702E-01                   4
CO2             20180216C   1O   2H   0N   0G    298.15     1500.    600.      1
   2.486575E+00   8.519448E-03  -6.826231E-06   2.836257E-09  -4.848037E-13    2
  -4.839591E+04   9.282405E+00   1.612754E+00   1.528614E-02  -2.637478E-05    3
   2.789551E-08  -1.253167E-11  -4.830669E+04   1.291695E+01                   4
CO              20180216C   1O   1H   0N   0G    298.15     1500.    700.      1
   3.780272E+00  -1.937662E-03   4.488470E-06  -3.030664E-09   6.901203E-13    2
  -1.437299E+04   2.625924E+00   4.227856E+00  -5.841304E-03   1.597909E-05    3
  -1.728174E-08   7.116280E-12  -1.440426E+04   8.547538E-01                   4
H2              20180216C   0O   0H   2N   0G      100.     1500.    600.      1
   3.660716E+00  -5.094913E-04   4.129702E-07   1.712035E-10  -1.025803E-13    2
  -1.078695E+03  -5.024551E+00   2.359620E+00   8.669434E-03  -2.452869E-05    3
   3.092782E-08  -1.454207E-11  -9.263951E+02   5.339751E-01                   4
CH4             20180216C   1O   0H   4N   0G      300.     1500.    500.      1
   1.923256E+00   6.477388E-03   3.691325E-06  -4.728679E-09   1.272770E-12    2
  -9.878082E+03   9.422848E+00   8.167462E+00  -4.340863E-02   1.565496E-04    3
  -2.170620E-07   1.137175E-10  -1.051860E+04  -1.645645E+01                   4
CHCH            20180216C   2O   0H   2N   0G    298.15     1500.    600.      1
   2.867774E+00   1.163393E-02  -1.114154E-05   6.261766E-09  -1.415648E-12    2
   2.597286E+04   4.810602E+00  -1.822474E+00   4.657433E-02  -1.095117E-04    3
   1.302547E-07  -6.038627E-11   2.648013E+04   2.453934E+01                   4
CH2CH2          20180216C   2O   0H   4N   0G    298.15     1500.    700.      1
  -1.714629E+00   2.746817E-02  -2.326748E-05   1.093010E-08  -2.127992E-12    2
   5.834109E+03   2.901878E+01   2.007959E+00   6.345070E-03   2.372066E-05    3
  -3.741865E-08   1.713816E-11   5.285668E+03   1.227730E+01                   4
CH3CH3          20180216C   2O   0H   6N   0G      100.     1700.    600.      1
  -1.179667E-01   2.441103E-02  -1.221218E-05   2.921645E-09  -2.633766E-13    2
  -1.102727E+04   2.116908E+01   5.687837E+00  -2.105701E-02   1.209877E-04    3
  -1.704135E-07   8.432696E-11  -1.161639E+04  -2.925983E+00                   4
CH2CHCH3        20180216C   3O   0H   6N   0G      100.     1500.    500.      1
  -4.434040E-01   3.270015E-02  -2.140139E-05   7.760878E-09  -1.244486E-12    2
   1.298713E+03   2.574714E+01   3.373153E+00   1.576827E-02  -4.277019E-05    3
   2.002270E-07  -2.333936E-10   8.409339E+02   8.773681E+00                   4
CH3CH2CH3       20180216C   3O   0H   8N   0G      100.     1500.    400.      1
  -1.501453E+00   4.155054E-02  -2.767764E-05   1.034881E-08  -1.721753E-12    2
  -1.375740E+04   2.979239E+01   2.136753E+00   4.211922E-02  -1.935494E-04    3
   6.183449E-07  -6.360716E-10  -1.431160E+04   1.212573E+01                   4
END