THERMO ALL
       100       500      1500
N2              20191025N   2               G100.0     1500.0    471.4         1
 3.90707437E+00-2.28536070E-03 4.13241401E-06-2.44830984E-09 5.06724318E-13    2
-1.91076337E+05 1.33148243E+00 3.50154664E+00-4.14212213E-05 3.93934337E-07    3
-1.57972141E-09 2.27100408E-12-1.91022890E+05 3.13326831E+00                   4
NH3             20191025N   1H   3          G100.0     1500.0    442.9         1
 3.08595685E+00 2.82506553E-03 2.00029877E-06-1.75769642E-09 3.68746696E-13    2
-2.15458157E+05 5.00372266E+00 3.96055186E+00 1.28120671E-03-1.37484459E-05    3
 5.45179087E-08-5.12600413E-11-2.15603394E+05 7.69853700E-01                   4
H2              20191025H   2               G100.0     1500.0    757.1         1
 3.83497007E+00-1.15954587E-03 1.24040123E-06-3.62792776E-10 2.28723836E-14    2
-7.55094623E+04-5.92203142E+00 3.50109022E+00-2.10430425E-05 1.37600731E-07    3
-3.67490635E-10 3.44829459E-13-7.54390811E+04-4.28024003E+00                   4
N2(S)           20191025N   2               S100.0     1500.0    385.7         1
 3.77159298E+00 2.74962092E-03-1.44271927E-06 3.54691296E-10-3.47935180E-14    2
-1.98765311E+05-1.64676962E+01-2.23618825E-01 3.45725381E-02-8.92262497E-05    3
 8.60037992E-08-6.53726457E-12-1.98375228E+05-2.26952342E-02                   4
N(S)            20191025N   1               S100.0     1500.0    385.7         1
 9.42579563E-01 1.55427751E-02-1.95357824E-05 1.12489616E-08-2.44679700E-12    2
-1.13569415E+05-1.69143919E+01 7.68034123E-02-2.06218730E-02 3.11609035E-04    3
-9.42303846E-07 9.11471822E-10-1.13163484E+05-9.25988774E+00                   4
H(S)            20191025H   1               S100.0     1500.0    442.9         1
-9.54605025E-01 1.06494217E-02-1.21265274E-05 6.47236197E-09-1.32631811E-12    2
-4.55696940E+04 2.11941297E+00 6.00188322E-01-1.52172577E-02 1.18495390E-04    3
-2.63992977E-07 2.00505107E-10-4.55902218E+04-2.81848775E+00                   4
NH3(S)          20191025N   1H   3          S100.0     1500.0    585.7         1
 2.92482015E+00 9.21050500E-03-5.23104911E-06 1.99340227E-09-3.75165361E-13    2
-2.25583513E+05-1.25216586E+01 9.27446503E-01 2.25301169E-02-4.19455056E-05    3
 5.04559773E-08-2.54564539E-11-2.25319376E+05-3.80456135E+00                   4
NH2(S)          20191025N   1H   2          S100.0     1500.0    442.9         1
 1.31522303E+00 1.29611955E-02-1.31510208E-05 7.22361033E-09-1.57194148E-12    2
-1.85904952E+05-9.45655813E+00-3.05713533E-01 8.04578997E-03 7.24766731E-05    3
-2.38544585E-07 2.15002367E-10-1.85558660E+05-7.66968791E-01                   4
NH(S)           20191025N   1H   1          S100.0     1500.0    414.3         1
 4.43423232E-01 1.28364482E-02-1.52486944E-05 8.82394386E-09-1.94780095E-12    2
-1.51741245E+05-7.94737886E+00-1.61261379E-02-1.10011958E-02 1.78572648E-04    3
-4.98783571E-07 4.43893135E-10-1.51449044E+05-3.18755207E+00                   4
TS1_NH3(S)      20191025N   1H   3          S100.0     1500.0    414.3         1
 9.41444673E-01 1.60866304E-02-1.43968713E-05 7.09208234E-09-1.43560532E-12    2
-2.12816821E+05-4.08408450E+00-1.11907246E+00 3.81330833E-02-1.13833700E-04    3
 2.17641286E-07-1.70977780E-10-2.12635068E+05 3.99172954E+00                   4
TS2_NH2(S)      20191025N   1H   2          S100.0     1500.0    442.9         1
 2.60292373E-01 1.68938488E-02-1.83465243E-05 9.85527198E-09-2.05879051E-12    2
-1.79624754E+05-4.86613663E+00-1.13849349E+00 1.36828057E-02 4.79689009E-05    3
-1.84369146E-07 1.71237911E-10-1.79333065E+05 2.53272186E+00                   4
TS3_NH(S)       20191025N   1H   1          S100.0     1500.0    385.7         1
 7.04603088E-01 1.15660380E-02-1.33191973E-05 7.22151610E-09-1.50485467E-12    2
-1.38731741E+05-7.78283574E+00-1.22171676E+00 1.73198908E-02 2.40738722E-05    3
-1.78486515E-07 2.14670186E-10-1.38473508E+05 1.04371828E+00                   4
TS4_N2(S)       20191025N   2               S100.0     1500.0    414.3         1
 2.70451931E+00 6.99384423E-03-8.69705103E-06 4.95478534E-09-1.06717499E-12    2
-1.70138693E+05-1.47855247E+01-2.11874938E+00 4.18100230E-02-9.39705072E-05    3
 7.17968413E-08 7.97694575E-12-1.69621486E+05 5.52531073E+00                   4
RU(S)           20191025                    S100.0     1500.0    814.3         1
 0.00000000E+00 0.00000000E+00 0.00000000E+00 0.00000000E+00 0.00000000E+00    2
 0.00000000E+00 0.00000000E+00 0.00000000E+00 0.00000000E+00 0.00000000E+00    3
 0.00000000E+00 0.00000000E+00 0.00000000E+00 0.00000000E+00                   4
RU(B)           20191025                    S100.0     1500.0    814.3         1
 0.00000000E+00 0.00000000E+00 0.00000000E+00 0.00000000E+00 0.00000000E+00    2
 0.00000000E+00 0.00000000E+00 0.00000000E+00 0.00000000E+00 0.00000000E+00    3
 0.00000000E+00 0.00000000E+00 0.00000000E+00 0.00000000E+00                   4
END