THERMO ALL
       100       500      1500
H2O                     H   2O   1          G200.0     1100.0    493.9         1
 3.65264072E+00 1.06108515E-03 3.83455580E-08 3.84923664E-10-2.13953966E-13    2
-3.01559688E+04 1.60236266E+00 3.99524709E+00 5.18551442E-04-5.53026360E-06    3
 1.85895538E-08-1.55138452E-11-3.02162601E+04-7.89384507E-02                   4
H2                      H   2               G200.0     1100.0    677.6         1
 3.47458128E+00 3.33323856E-04-1.07413869E-06 1.23229932E-09-3.87505553E-13    2
-1.00671516E+03-4.17284186E+00 3.50368711E+00-5.09520583E-05 2.59076698E-07    3
-5.76347123E-10 4.75276554E-13-1.00580779E+03-4.26615761E+00                   4
O2                      O   2               G200.0     1100.0    604.1         1
 3.81428705E+00-2.43962827E-03 5.76514137E-06-4.29570548E-09 1.11527700E-12    2
-5.03838768E+03 3.47144761E+00 3.42023428E+00 1.11878623E-03-5.58175407E-06    3
 1.12396705E-08-6.69234827E-12-5.00741547E+03 5.03398906E+00                   4
MO(S)                   O   1Pt  1          S200.0     1100.0    604.1         1
 7.58148263E-01 6.93537690E-03-9.09332498E-06 5.64388225E-09-1.36222297E-12    2
 5.46985205E+04-4.75898748E+00-1.85092759E+00 2.48466946E-02-5.62021000E-05    3
 6.17887348E-08-2.68761443E-11 5.50094633E+04 6.44810333E+00                   4
MO(B)                   Pt  1               S200.0     1100.0    604.1         1
 7.58148263E-01 6.93537690E-03-9.09332498E-06 5.64388225E-09-1.36222297E-12    2
 7.87256857E+02-4.75898748E+00-1.85092759E+00 2.48466946E-02-5.62021000E-05    3
 6.17887348E-08-2.68761443E-11 1.09819962E+03 6.44810333E+00                   4
V-MO(S)                 Pt  1               S200.0     1100.0    659.2         1
 0.00000000E+00 0.00000000E+00 0.00000000E+00 0.00000000E+00 0.00000000E+00    2
 8.12316548E+04 0.00000000E+00 0.00000000E+00 0.00000000E+00 0.00000000E+00    3
 0.00000000E+00 0.00000000E+00 8.12316548E+04 0.00000000E+00                   4
MO_bulk(S)              O   1Pt  1          S200.0     1100.0    604.1         1
 7.58148263E-01 6.93537690E-03-9.09332498E-06 5.64388225E-09-1.36222297E-12    2
 5.46985205E+04-4.75898748E+00-1.85092759E+00 2.48466946E-02-5.62021000E-05    3
 6.17887348E-08-2.68761443E-11 5.50094633E+04 6.44810333E+00                   4
MO_bulk(B)              Pt  1               S200.0     1100.0    604.1         1
 7.58148263E-01 6.93537690E-03-9.09332498E-06 5.64388225E-09-1.36222297E-12    2
 7.87256857E+02-4.75898748E+00-1.85092759E+00 2.48466946E-02-5.62021000E-05    3
 6.17887348E-08-2.68761443E-11 1.09819962E+03 6.44810333E+00                   4
V-MO_bulk(S)            Pt  1               S200.0     1100.0    659.2         1
 0.00000000E+00 0.00000000E+00 0.00000000E+00 0.00000000E+00 0.00000000E+00    2
 8.12316548E+04 0.00000000E+00 0.00000000E+00 0.00000000E+00 0.00000000E+00    3
 0.00000000E+00 0.00000000E+00 8.12316548E+04 0.00000000E+00                   4
END