THERMO ALL
       100       500      1500
H2O             20180912H   2O   1          G200.0     1100.0    493.9         1
 3.65264072E+00 1.06108517E-03 3.83455274E-08 3.84923694E-10-2.13953978E-13    2
-3.02204928E+04 1.60251588E+00 3.99524710E+00 5.18551391E-04-5.53026339E-06    3
 1.85895535E-08-1.55138450E-11-3.02807840E+04-7.87852571E-02                   4
H2              20180912H   2               G200.0     1100.0    677.6         1
 3.47458128E+00 3.33323834E-04-1.07413866E-06 1.23229930E-09-3.87505551E-13    2
-1.04411622E+03-4.17273966E+00 3.50368711E+00-5.09520582E-05 2.59076699E-07    3
-5.76347128E-10 4.75276560E-13-1.04320885E+03-4.26605538E+00                   4
O2              20180912O   2               G200.0     1100.0    604.1         1
 3.81428704E+00-2.43962823E-03 5.76514133E-06-4.29570547E-09 1.11527700E-12    2
-5.09263344E+03 3.47154984E+00 3.42023428E+00 1.11878624E-03-5.58175412E-06    3
 1.12396706E-08-6.69234838E-12-5.06166123E+03 5.03409125E+00                   4
MO(S)           20180912O   1Pt  1          S200.0     1100.0    604.1         1
 7.58148278E-01 6.93537685E-03-9.09332493E-06 5.64388222E-09-1.36222296E-12    2
 5.46713976E+04-4.75898756E+00-1.85092759E+00 2.48466947E-02-5.62021005E-05    3
 6.17887357E-08-2.68761448E-11 5.49823404E+04 6.44810332E+00                   4
MO(B)           20180912Pt  1               S200.0     1100.0    604.1         1
 7.58148278E-01 6.93537685E-03-9.09332493E-06 5.64388222E-09-1.36222296E-12    2
 7.87256849E+02-4.75898756E+00-1.85092759E+00 2.48466947E-02-5.62021005E-05    3
 6.17887357E-08-2.68761448E-11 1.09819961E+03 6.44810332E+00                   4
V-MO(S)         20180912Pt  1               S200.0     1100.0    659.2         1
 0.00000000E+00 0.00000000E+00 0.00000000E+00 0.00000000E+00 0.00000000E+00    2
 8.12316548E+04 0.00000000E+00 0.00000000E+00 0.00000000E+00 0.00000000E+00    3
 0.00000000E+00 0.00000000E+00 8.12316548E+04 0.00000000E+00                   4
MO_bulk(S)      20180912O   1Pt  1          S200.0     1100.0    604.1         1
 7.58148278E-01 6.93537685E-03-9.09332493E-06 5.64388222E-09-1.36222296E-12    2
 5.46713976E+04-4.75898756E+00-1.85092759E+00 2.48466947E-02-5.62021005E-05    3
 6.17887357E-08-2.68761448E-11 5.49823404E+04 6.44810332E+00                   4
MO_bulk(B)      20180912Pt  1               S200.0     1100.0    604.1         1
 7.58148278E-01 6.93537685E-03-9.09332493E-06 5.64388222E-09-1.36222296E-12    2
 7.87256849E+02-4.75898756E+00-1.85092759E+00 2.48466947E-02-5.62021005E-05    3
 6.17887357E-08-2.68761448E-11 1.09819961E+03 6.44810332E+00                   4
V-MO_bulk(S)    20180912Pt  1               S200.0     1100.0    659.2         1
 0.00000000E+00 0.00000000E+00 0.00000000E+00 0.00000000E+00 0.00000000E+00    2
 8.12316548E+04 0.00000000E+00 0.00000000E+00 0.00000000E+00 0.00000000E+00    3
 0.00000000E+00 0.00000000E+00 8.12316548E+04 0.00000000E+00                   4
END