THERMO ALL
       100       500      1500
H2O             20181018H   2O   1          G200.0     1100.0    475.5         1
 3.65264072E+00 1.06108517E-03 3.83455274E-08 3.84923694E-10-2.13953978E-13    2
-3.02204912E+04 1.60251908E+00 3.99524710E+00 5.18551391E-04-5.53026339E-06    3
 1.85895535E-08-1.55138450E-11-3.02807840E+04-7.87852571E-02                   4
H2              20181018H   2               G200.0     1100.0    457.1         1
 3.40314913E+00 6.66875856E-04-1.65216699E-06 1.67300824E-09-5.12284474E-13    2
-1.03200712E+03-3.83955260E+00 3.50160640E+00-2.36911831E-05 1.29266916E-07    3
-3.09799438E-10 2.75756658E-13-1.04308589E+03-4.25851927E+00                   4
O2              20181018O   2               G200.0     1100.0    420.4         1
 3.95523331E+00-3.12933908E-03 7.01187124E-06-5.28296070E-09 1.40446679E-12    2
-5.11531936E+03 2.82107116E+00 3.45235499E+00 6.79381058E-04-3.38325193E-06    3
 6.46727720E-09-2.89472893E-12-5.06349214E+03 4.91903245E+00                   4
MO(S)           20181018O   1Pt  1          S200.0     1100.0    585.7         1
 7.58148278E-01 6.93537685E-03-9.09332493E-06 5.64388222E-09-1.36222296E-12    2
 5.46714102E+04-4.75896647E+00-1.85092759E+00 2.48466947E-02-5.62021005E-05    3
 6.17887357E-08-2.68761448E-11 5.49823404E+04 6.44810332E+00                   4
MO(B)           20181018Pt  1               S200.0     1100.0    585.7         1
 7.58148278E-01 6.93537685E-03-9.09332493E-06 5.64388222E-09-1.36222296E-12    2
 7.87269404E+02-4.75896647E+00-1.85092759E+00 2.48466947E-02-5.62021005E-05    3
 6.17887357E-08-2.68761448E-11 1.09819961E+03 6.44810332E+00                   4
V-MO(S)         20181018Pt  1               S200.0     1100.0    659.2         1
 0.00000000E+00 0.00000000E+00 0.00000000E+00 0.00000000E+00 0.00000000E+00    2
 8.12316548E+04 0.00000000E+00 0.00000000E+00 0.00000000E+00 0.00000000E+00    3
 0.00000000E+00 0.00000000E+00 8.12316548E+04 0.00000000E+00                   4
MO_bulk(S)      20181018O   1Pt  1          S200.0     1100.0    585.7         1
 7.58148278E-01 6.93537685E-03-9.09332493E-06 5.64388222E-09-1.36222296E-12    2
 5.46714102E+04-4.75896647E+00-1.85092759E+00 2.48466947E-02-5.62021005E-05    3
 6.17887357E-08-2.68761448E-11 5.49823404E+04 6.44810332E+00                   4
MO_bulk(B)      20181018Pt  1               S200.0     1100.0    585.7         1
 7.58148278E-01 6.93537685E-03-9.09332493E-06 5.64388222E-09-1.36222296E-12    2
 7.87269404E+02-4.75896647E+00-1.85092759E+00 2.48466947E-02-5.62021005E-05    3
 6.17887357E-08-2.68761448E-11 1.09819961E+03 6.44810332E+00                   4
V-MO_bulk(S)    20181018Pt  1               S200.0     1100.0    659.2         1
 0.00000000E+00 0.00000000E+00 0.00000000E+00 0.00000000E+00 0.00000000E+00    2
 8.12316548E+04 0.00000000E+00 0.00000000E+00 0.00000000E+00 0.00000000E+00    3
 0.00000000E+00 0.00000000E+00 8.12316548E+04 0.00000000E+00                   4
END