THERMO ALL
       100       500      1500
H2O             20180923H   2O   1          G200.0     1100.0    1008.2        1
 4.07534636E+00-6.42969440E-04 2.60451517E-06-1.32569804E-09 2.11893158E-13    2
-3.03040425E+04-4.32523820E-01 4.21983853E+00-2.32380967E-03 7.40702758E-06    3
-6.56038185E-09 2.18220491E-12-3.02943616E+04-8.98757744E-01                   4
H2              20180923H   2               G200.0     1100.0    1008.2        1
 3.80427271E+00-1.01252940E-03 9.84748324E-07-1.66350352E-10-3.15789285E-14    2
-1.10870943E+03-5.75652665E+00 3.48061207E+00 1.79283414E-04-5.41795475E-07    3
 5.86082978E-10-1.25176888E-13-1.04150037E+03-4.17671503E+00                   4
O2              20180923O   2               G200.0     1100.0    1008.2        1
 3.09929553E+00 5.57739336E-04 1.05690570E-06-1.01276935E-09 2.58217489E-13    2
-4.95616105E+03 6.88731229E+00 3.61967473E+00-9.37002368E-04 1.87091915E-06    3
-1.32673607E-10-4.64012925E-13-5.07606078E+03 4.26761166E+00                   4
MO(S)           20180923O   1Pt  1          S200.0     1100.0    824.5         1
 1.26805337E+00 4.68524548E-03-5.39054064E-06 2.95100932E-09-6.31941207E-13    2
 5.45796039E+04-7.16719816E+00-1.59586899E+00 2.20613663E-02-4.54308741E-05    3
 4.42063594E-08-1.65832282E-11 5.49648189E+04 5.48158054E+00                   4
MO(B)           20180923Pt  1               S200.0     1100.0    824.5         1
 1.26805337E+00 4.68524548E-03-5.39054064E-06 2.95100932E-09-6.31941207E-13    2
 6.95463123E+02-7.16719816E+00-1.59586899E+00 2.20613663E-02-4.54308741E-05    3
 4.42063594E-08-1.65832282E-11 1.08067807E+03 5.48158054E+00                   4
V-MO(S)         20180923Pt  1               S200.0     1100.0    659.2         1
 0.00000000E+00 0.00000000E+00 0.00000000E+00 0.00000000E+00 0.00000000E+00    2
 8.12316548E+04 0.00000000E+00 0.00000000E+00 0.00000000E+00 0.00000000E+00    3
 0.00000000E+00 0.00000000E+00 8.12316548E+04 0.00000000E+00                   4
MO_bulk(S)      20180923O   1Pt  1          S200.0     1100.0    824.5         1
 1.26805337E+00 4.68524548E-03-5.39054064E-06 2.95100932E-09-6.31941207E-13    2
 5.45796039E+04-7.16719816E+00-1.59586899E+00 2.20613663E-02-4.54308741E-05    3
 4.42063594E-08-1.65832282E-11 5.49648189E+04 5.48158054E+00                   4
MO_bulk(B)      20180923Pt  1               S200.0     1100.0    824.5         1
 1.26805337E+00 4.68524548E-03-5.39054064E-06 2.95100932E-09-6.31941207E-13    2
 6.95463123E+02-7.16719816E+00-1.59586899E+00 2.20613663E-02-4.54308741E-05    3
 4.42063594E-08-1.65832282E-11 1.08067807E+03 5.48158054E+00                   4
V-MO_bulk(S)    20180923Pt  1               S200.0     1100.0    659.2         1
 0.00000000E+00 0.00000000E+00 0.00000000E+00 0.00000000E+00 0.00000000E+00    2
 8.12316548E+04 0.00000000E+00 0.00000000E+00 0.00000000E+00 0.00000000E+00    3
 0.00000000E+00 0.00000000E+00 8.12316548E+04 0.00000000E+00                   4
END