THERMO ALL
       100       500      1500
ethane          20190125C   2H   6          G298.0     800.0     502.9         1
-6.84729317E-01 2.54150584E-02-1.02900193E-05-1.15304090E-09 1.73800327E-12    2
-1.08866341E+04 2.42655635E+01 6.77655563E+00-3.31037518E-02 1.63456769E-04    3
-2.32569163E-07 1.18361103E-10-1.16548936E+04-6.74224205E+00                   4
propane         20190125C   3H   8          G298.0     800.0     502.9         1
-2.54716915E+00 4.36640749E-02-2.65978975E-05 6.89956646E-09 7.68567634E-14    2
-1.35353831E+04 3.50227651E+01 8.09253651E+00-4.01657054E-02 2.23439464E-04    3
-3.27632587E-07 1.69405578E-10-1.46259783E+04-9.14554121E+00                   4
butane          20190125C   4H  10          G298.0     800.0     502.9         1
-1.98482876E+00 5.99910769E-02-4.67983727E-05 2.14853318E-08-4.31005098E-12    2
-8.15415828E+05 3.48691129E+01 9.98107805E+00-3.50556935E-02 2.38938732E-04    3
-3.63709779E-07 1.92062158E-10-8.16632302E+05-1.47065846E+01                   4
END