THERMO ALL
       100       500      1500
N2                121286N   2               G   300.000  5000.000  1000.000    1
 0.02926640E+02 0.14879768E-02-0.05684760E-05 0.10097038E-09-0.06753351E-13    2
-0.09227977E+04 0.05980528E+02 0.03298677E+02 0.14082404E-02-0.03963222E-04    3
 0.05641515E-07-0.02444854E-10-0.10208999E+04 0.03950372E+02                   4
H2                TPIS78H   2               G   200.000  3500.000  1000.000    1
 3.33727920E+00-4.94024731E-05 4.99456778E-07-1.79566394E-10 2.00255376E-14    2
-9.50158922E+02-3.20502331E+00 2.34433112E+00 7.98052075E-03-1.94781510E-05    3
 2.01572094E-08-7.37611761E-12-9.17935173E+02 6.83010238E-01                   4
NH3               J 6/77N   1H   3          G   200.000  6000.000  1000.000    1
 0.26344521E+01 0.56662560E-02-0.17278676E-05 0.23867161E-09-0.12578786E-13    2
-0.65446958E+04 0.65662928E+01 0.42860274E+01-0.46605230E-02 0.21718513E-04    3
-0.22808887E-07 0.82638046E-11-0.67417285E+04-0.62537277E+00                   4
N2(S1)          20181204N   2               S100.0     1500.0    400.0         1
 3.76252506E+00 2.79659356E-03-1.52520577E-06 4.14555399E-10-5.02045011E-14    2
-8.00398579E+03-1.53689128E+01-2.84758276E-01 3.58753257E-02-9.88433893E-05    3
 1.15377141E-07-3.81326714E-11-7.61301743E+03 1.22539625E+00                   4
N(S1)           20181204N   1               S100.0     1500.0    400.0         1
 8.49362145E-01 1.60024058E-02-2.03165939E-05 1.18022426E-08-2.58667974E-12    2
-1.16384549E+04-6.74051171E+00-2.12405668E-01-1.44767598E-02 2.66392106E-04    3
-8.04638694E-07 7.63770653E-10-1.12361446E+04 1.38872242E+00                   4
H(S1)           20181204H   1               S100.0     1500.0    450.0         1
-1.00540892E+00 1.08830961E-02-1.25048374E-05 6.73114028E-09-1.39000534E-12    2
-6.03443632E+03 3.42508372E+00 5.63345923E-01-1.45012062E-02 1.13785384E-04    3
-2.51403975E-07 1.88757748E-10-6.06174478E+03-1.63123437E+00                   4
NH3(S1)         20181204N   1H   3          S100.0     1500.0    600.0         1
 2.92482015E+00 9.21050500E-03-5.23104911E-06 1.99340227E-09-3.75165361E-13    2
-1.43223146E+04-1.25463699E+01 9.28960294E-01 2.25116155E-02-4.18789038E-05    3
 5.03496923E-08-2.53857187E-11-1.40581327E+04-3.83435815E+00                   4
NH2(S1)         20181204N   1H   2          S100.0     1500.0    450.0         1
 1.21917599E+00 1.34032923E-02-1.38671362E-05 7.71365373E-09-1.69258160E-12    2
-1.22487955E+04-7.45369648E+00-3.79474456E-01 9.48248871E-03 6.30018722E-05    3
-2.13151338E-07 1.91251022E-10-1.19151767E+04 1.02503013E+00                   4
NH(S1)          20181204N   1H   1          S100.0     1500.0    425.0         1
 3.35288108E-01 1.33470927E-02-1.60909393E-05 9.40808818E-09-2.09310094E-12    2
-1.53423862E+04-3.78399297E+00-1.41722470E-01-8.44842436E-03 1.60794323E-04    3
-4.47967560E-07 3.92930018E-10-1.50624317E+04 8.72691982E-01                   4
TS1_NH3         20181204N   1H   3          S100.0     1500.0    425.0         1
 8.86678556E-01 1.63443306E-02-1.48207906E-05 7.38549354E-09-1.50847009E-12    2
-2.46161618E+03-5.13880251E+00-1.07137043E+00 3.71624640E-02-1.07065018E-04    3
 1.98266918E-07-1.51523085E-10-2.29006878E+03 2.53377870E+00                   4
TS2_NH2         20181204N   1H   2          S100.0     1500.0    450.0         1
 1.66924579E-01 1.73233714E-02-1.90419883E-05 1.03310371E-08-2.17588752E-12    2
-6.15465216E+03-3.13271804E+00-1.21052601E+00 1.50896626E-02 3.86594063E-05    3
-1.59325257E-07 1.47731654E-10-5.87531730E+03 4.06189478E+00                   4
TS3_NH          20181204N   1H   1          S100.0     1500.0    400.0         1
 6.61083705E-01 1.17795808E-02-1.36807169E-05 7.47703275E-09-1.56932735E-12    2
-2.86760799E+03-4.62268008E+00-1.33339635E+00 1.96957531E-02 6.56761733E-06    3
-1.25115118E-07 1.57345700E-10-2.61194242E+03 4.35241719E+00                   4
TS4_N2          20181204N   2               S100.0     1500.0    450.0         1
 2.78060846E+00 6.67963960E-03-8.22549694E-06 4.64946475E-09-9.95044403E-13    2
 2.05512556E+04-1.41798793E+01-2.26293550E+00 4.47254328E-02-1.14165081E-04    3
 1.29234248E-07-4.93656769E-11 2.10879548E+04 6.94976721E+00                   4
END