THERMO ALL
       100       500      1500
Bz-bri                  C   6H   6          S300.0     1000.0    542.9         1
-1.04477683E+01 1.02752014E-01-1.19912609E-04 7.37624781E-08-1.84979875E-11    2
-1.79152026E+04 4.14143636E+01-1.79253870E+00 2.67483339E-02 1.26980232E-04    3
-2.79563042E-07 1.70024940E-10-1.86870026E+04 6.54218717E+00                   4
Bz-hol-fcc              C   6H   6          S300.0     1000.0    542.9         1
-9.92064736E+00 1.00369665E-01-1.16232254E-04 7.11429517E-08-1.77756286E-11    2
-1.40641653E+04 3.96224576E+01-8.96888598E-01 2.24828653E-02 1.33586425E-04    3
-2.82940730E-07 1.69742574E-10-1.48886400E+04 3.08310461E+00                   4
Bz-hol-hcp              C   6H   6          S300.0     1000.0    542.9         1
-9.96149289E+00 1.00616523E-01-1.16671539E-04 7.14776306E-08-1.78706544E-11    2
-1.49724794E+04 3.97285117E+01-1.00809113E+00 2.31811381E-02 1.32068535E-04    3
-2.81473675E-07 1.69210031E-10-1.57882176E+04 3.49517558E+00                   4
CH-fcc                  C   6H   12         S300.0     1000.0    500.0         1
-1.12624746E+01 1.12753687E-01-1.03835449E-04 5.37771415E-08-1.20630638E-11    2
-2.90917684E+04 5.18477081E+01 1.02248328E+01-6.21459527E-02 4.36053019E-04    3
-6.94907874E-07 3.81189974E-10-3.12279481E+04-3.66730950E+01                   4
CH-hcp                  C   6H   12         S300.0     1000.0    500.0         1
-1.12879825E+01 1.13080602E-01-1.04485586E-04 5.42985315E-08-1.22164847E-11    2
-2.91596896E+04 5.23493419E+01 1.01872693E+01-6.19110303E-02 4.36232133E-04    3
-6.96231461E-07 3.82338215E-10-3.12922022E+04-3.60976651E+01                   4
H12345Bz-hol-fcc        C   6H   11         S300.0     1000.0    500.0         1
-1.16707935E+01 1.13442258E-01-1.10710372E-04 6.05117602E-08-1.41715640E-11    2
-2.57393434E+04 5.13469787E+01 7.79753343E+00-4.66950799E-02 3.88149398E-04    3
-6.36739738E-07 3.54527242E-10-2.76519763E+04-2.86386193E+01                   4
H12345Bz-hol-hcp        C   6H   11         S300.0     1000.0    500.0         1
-1.17957763E+01 1.14083398E-01-1.11836307E-04 6.13645230E-08-1.44120796E-11    2
-2.55001911E+04 5.14906853E+01 7.51235193E+00-4.48308120E-02 3.83448852E-04    3
-6.31146640E-07 3.51881972E-10-2.73957116E+04-2.78240174E+01                   4
H1234Bz-briA-fcc        C   6H   10         S300.0     1000.0    500.0         1
-1.04349613E+01 1.06740271E-01-1.05737111E-04 5.85303231E-08-1.38133200E-11    2
-1.95174048E+04 4.59427303E+01 7.67369602E+00-4.17105563E-02 3.55276967E-04    3
-5.83999466E-07 3.25085308E-10-2.13028883E+04-2.85200407E+01                   4
H1234Bz-briB            C   6H   10         S300.0     1000.0    500.0         1
-1.04756320E+01 1.07013866E-01-1.05751052E-04 5.83128871E-08-1.37176014E-11    2
-2.05777270E+04 4.57611417E+01 7.21691629E+00-3.83471791E-02 3.46590364E-04    3
-5.73305231E-07 3.19987157E-10-2.23180512E+04-2.69499818E+01                   4
H1234Bz-hol-fcc         C   6H   10         S300.0     1000.0    485.7         1
-1.12876667E+01 1.10456847E-01-1.11828197E-04 6.30082677E-08-1.50585960E-11    2
-2.13903746E+04 4.94576759E+01 7.29319731E+00-4.36801210E-02 3.72736452E-04    3
-6.21035848E-07 3.50630446E-10-2.32012132E+04-2.67291951E+01                   4
H1235Bz-bri-fcc         C   6H   10         S300.0     1000.0    485.7         1
-1.26384151E+01 1.16213649E-01-1.20461285E-04 6.90574893E-08-1.67215569E-11    2
-2.25530946E+04 5.32062845E+01 5.23055551E+00-3.39123634E-02 3.56929641E-04    3
-6.11790841E-07 3.50578022E-10-2.42704509E+04-1.98235328E+01                   4
H1235Bz-bri-hcp         C   6H   10         S300.0     1000.0    485.7         1
-1.26434934E+01 1.16450061E-01-1.21060565E-04 6.95983516E-08-1.68913811E-11    2
-2.23856318E+04 5.31862367E+01 5.13425838E+00-3.30386628E-02 3.54653270E-04    3
-6.09277585E-07 3.49532946E-10-2.40925096E+04-1.94542069E+01                   4
H123Bz-bri-fcc          C   6H   9          S300.0     1000.0    485.7         1
-1.10954513E+01 1.08744693E-01-1.14250582E-04 6.60839183E-08-1.60644271E-11    2
-2.07034231E+04 4.69248919E+01 5.11964068E+00-2.70087559E-02 3.16033102E-04    3
-5.45752553E-07 3.13114163E-10-2.22676667E+04-1.94044558E+01                   4
H123Bz-bri-hcp          C   6H   9          S300.0     1000.0    485.7         1
-1.10401924E+01 1.08553186E-01-1.13962736E-04 6.58956597E-08-1.60193389E-11    2
-2.10389401E+04 4.67675824E+01 5.15517247E+00-2.71084922E-02 3.16247896E-04    3
-5.46124997E-07 3.13401612E-10-2.26003844E+04-1.94720353E+01                   4
H123Bz-hol-fcc          C   6H   9          S300.0     1000.0    471.4         1
-1.18985400E+01 1.12440474E-01-1.20310435E-04 7.06078573E-08-1.73564834E-11    2
-2.20060723E+04 4.95243060E+01 4.57842347E+00-2.75599138E-02 3.30128436E-04    3
-5.79770188E-07 3.38123929E-10-2.35723015E+04-1.76333504E+01                   4
H123Bz-hol-hcp          C   6H   9          S300.0     1000.0    471.4         1
-1.18473998E+01 1.12483719E-01-1.20543737E-04 7.08393326E-08-1.74311775E-11    2
-2.19118110E+04 4.94440712E+01 4.65061232E+00-2.78178368E-02 3.31238463E-04    3
-5.81989073E-07 3.39650780E-10-2.34786122E+04-1.77846498E+01                   4
H124Bz-bri-fcc          C   6H   9          S300.0     1000.0    471.4         1
-1.13021753E+01 1.09684237E-01-1.15718043E-04 6.71779167E-08-1.63848289E-11    2
-1.76928100E+04 4.74379152E+01 5.34060995E+00-3.13116256E-02 3.36818222E-04    3
-5.84931470E-07 3.39478156E-10-1.92802452E+04-2.04485324E+01                   4
H124Bz-bri-hcp          C   6H   9          S300.0     1000.0    471.4         1
-1.13272779E+01 1.09899543E-01-1.16329409E-04 6.77211535E-08-1.65438758E-11    2
-1.76391195E+04 4.77469817E+01 5.50321642E+00-3.25231239E-02 3.40308689E-04    3
-5.89680623E-07 3.41907543E-10-1.92464523E+04-2.09252584E+01                   4
H124Bz-hol-fcc          C   6H   9          S300.0     1000.0    514.3         1
-1.25253173E+01 1.15070548E-01-1.24611224E-04 7.36943413E-08-1.81805069E-11    2
-2.07604596E+04 5.22382301E+01 3.59034321E+00-2.01340970E-02 3.02790194E-04    3
-5.29690912E-07 3.02756592E-10-2.23040682E+04-1.36107371E+01                   4
H124Bz-hol-hcp          C   6H   9          S300.0     1000.0    514.3         1
-1.25104266E+01 1.15178201E-01-1.24853180E-04 7.38964352E-08-1.82422665E-11    2
-2.08098812E+04 5.21546552E+01 3.59271026E+00-2.00848064E-02 3.03177231E-04    3
-5.30917949E-07 3.03703755E-10-2.23501159E+04-1.36221416E+01                   4
H12Bz-briA-fcc          C   6H   8          S300.0     1000.0    528.6         1
-1.11160606E+01 1.07798332E-01-1.17612182E-04 6.96018429E-08-1.71216985E-11    2
-1.89861007E+04 4.56722254E+01 2.19062908E+00-3.91507446E-03 2.34610497E-04    3
-4.24981589E-07 2.43910696E-10-2.02547786E+04-8.66571095E+00                   4
H12Bz-briA-hcp          C   6H   8          S300.0     1000.0    528.6         1
-1.10411321E+01 1.07499271E-01-1.17205901E-04 6.93525780E-08-1.70624353E-11    2
-1.89038447E+04 4.54570589E+01 2.23736628E+00-3.95677201E-03 2.34149653E-04    3
-4.23946357E-07 2.43261808E-10-2.01701116E+04-8.76842675E+00                   4
H12Bz-holA-fcc          C   6H   8          S300.0     1000.0    514.3         1
-1.15342267E+01 1.09310963E-01-1.20519459E-04 7.19823544E-08-1.78246461E-11    2
-1.83301464E+04 4.82145502E+01 3.03640154E+00-1.28556631E-02 2.65440875E-04    3
-4.72608888E-07 2.71705854E-10-1.97266436E+04-1.13305414E+01                   4
H12Bz-holA-hcp          C   6H   8          S300.0     1000.0    514.3         1
-1.14764077E+01 1.09135281E-01-1.20257755E-04 7.18071801E-08-1.77812703E-11    2
-1.86460571E+04 4.79676444E+01 3.03710583E+00-1.26367084E-02 2.64685964E-04    3
-4.71631275E-07 2.71266572E-10-2.00359632E+04-1.13332344E+01                   4
H12Bz-holB-fcc          C   6H   8          S300.0     1000.0    471.4         1
-1.02106810E+01 1.04036754E-01-1.12480418E-04 6.63697328E-08-1.63208720E-11    2
-1.32381381E+04 4.42073510E+01 4.86233032E+00-2.34361108E-02 2.96009186E-04    3
-5.21463884E-07 3.04099014E-10-1.46785816E+04-1.73036085E+01                   4
H135Bz-hol-fcc          C   6H   9          S300.0     1000.0    528.6         1
-1.31743192E+01 1.17150534E-01-1.26969754E-04 7.49539457E-08-1.84499079E-11    2
-2.16725324E+04 5.43171770E+01 1.88159942E+00-9.73026367E-03 2.74351906E-04    3
-4.90085896E-07 2.80442449E-10-2.31014307E+04-7.10107809E+00                   4
H135Bz-hol-hcp          C   6H   9          S300.0     1000.0    528.6         1
-1.31472794E+01 1.17004356E-01-1.26680871E-04 7.47252920E-08-1.83851636E-11    2
-2.16535683E+04 5.42202435E+01 1.89163303E+00-9.74767030E-03 2.74276147E-04    3
-4.89856630E-07 2.80291921E-10-2.30806761E+04-7.12684683E+00                   4
H13Bz-bri-fcc           C   6H   8          S300.0     1000.0    528.6         1
-1.21472242E+01 1.12885300E-01-1.26327011E-04 7.61801708E-08-1.89868036E-11    2
-1.79557870E+04 4.94677942E+01 5.52202247E-01 4.35017926E-03 2.20692143E-04    3
-4.16510210E-07 2.43345843E-10-1.91389952E+04-2.13410372E+00                   4
H13Bz-bri-hcp           C   6H   8          S300.0     1000.0    528.6         1
-1.21630023E+01 1.12886009E-01-1.26289856E-04 7.61376825E-08-1.89720918E-11    2
-1.81299828E+04 4.95157073E+01 5.52774347E-01 4.26552956E-03 2.20862852E-04    3
-4.16581096E-07 2.43304770E-10-1.93154689E+04-2.15976168E+00                   4
H13Bz-hol-fcc           C   6H   8          S300.0     1000.0    528.6         1
-1.17614157E+01 1.10330078E-01-1.21689927E-04 7.26040193E-08-1.79608214E-11    2
-1.97867355E+04 4.83856117E+01 1.57048841E+00-2.23733387E-03 2.34847117E-04    3
-4.29873074E-07 2.48023549E-10-2.10486412E+04-5.96977666E+00                   4
H13Bz-hol-hcp           C   6H   8          S300.0     1000.0    528.6         1
-1.17925855E+01 1.10501291E-01-1.21941585E-04 7.27777067E-08-1.80088471E-11    2
-2.00014298E+04 4.85010898E+01 1.52406363E+00-2.06505566E-03 2.34923412E-04    3
-4.30547880E-07 2.48595295E-10-2.12601211E+04-5.77535098E+00                   4
H14Bz-briA              C   6H   8          S300.0     1000.0    528.6         1
-1.04957861E+01 1.05492480E-01-1.14544974E-04 6.76900173E-08-1.66494331E-11    2
-1.42325209E+04 4.32312760E+01 2.51059334E+00-3.34460399E-03 2.27653619E-04    3
-4.11664744E-07 2.35819487E-10-1.54773419E+04-9.92622767E+00                   4
H14Bz-briB              C   6H   8          S300.0     1000.0    528.6         1
-1.27176517E+01 1.15096065E-01-1.29750004E-04 7.86029565E-08-1.96415934E-11    2
-1.82723952E+04 5.17226980E+01 3.77148550E-01 2.80868705E-03 2.30279879E-04    3
-4.33803000E-07 2.53767401E-10-1.94875410E+04-1.43808734E+00                   4
H14Bz-hol-fcc           C   6H   8          S300.0     1000.0    528.6         1
-1.18054384E+01 1.11014467E-01-1.23354610E-04 7.40255349E-08-1.83802508E-11    2
-1.76495624E+04 4.83823325E+01 1.53722573E+00-1.76632841E-03 2.34155917E-04    3
-4.30148434E-07 2.48637146E-10-1.89106781E+04-6.00035387E+00                   4
H14Bz-hol-hcp           C   6H   8          S300.0     1000.0    528.6         1
-1.18663712E+01 1.11019142E-01-1.23158691E-04 7.38037463E-08-1.83064722E-11    2
-1.75960610E+04 4.86307905E+01 1.55479002E+00-2.31754413E-03 2.35846118E-04    3
-4.32178005E-07 2.49541390E-10-1.88661454E+04-6.08621819E+00                   4
H1Bz-briB-fcc           C   6H   7          S300.0     1000.0    542.9         1
-1.14473343E+01 1.08136849E-01-1.23337667E-04 7.49522928E-08-1.86928999E-11    2
-1.80314859E+04 4.59939819E+01-7.94522741E-01 1.62948184E-02 1.71072224E-04    3
-3.42238882E-07 2.02241994E-10-1.90068403E+04 2.84178057E+00                   4
H1Bz-briB-hcp           C   6H   7          S300.0     1000.0    542.9         1
-1.14437936E+01 1.08143211E-01-1.23356738E-04 7.49707182E-08-1.86992120E-11    2
-1.83253841E+04 4.59739592E+01-8.30065827E-01 1.65822134E-02 1.70285599E-04    3
-3.41276753E-07 2.01795145E-10-1.92963357E+04 2.98763943E+00                   4
H1Bz-hol-fcc            C   6H   7          S300.0     1000.0    528.6         1
-1.08950148E+01 1.05913370E-01-1.20279492E-04 7.30355471E-08-1.82295585E-11    2
-1.63658808E+04 4.42737642E+01 6.08998687E-01 7.91952558E-03 1.92213519E-04    3
-3.69706049E-07 2.17114058E-10-1.74422259E+04-2.51348646E+00                   4
H1Bz-hol-hcp            C   6H   7          S300.0     1000.0    528.6         1
-1.09278987E+01 1.05971447E-01-1.20285096E-04 7.30104731E-08-1.82199046E-11    2
-1.67274602E+04 4.44320519E+01 5.39225918E-01 8.21463853E-03 1.91650986E-04    3
-3.69173239E-07 2.16929151E-10-1.77992856E+04-2.19505549E+00                   4
H1234Bz-briA-hcp        C   6H   10         S300.0     1000.0    500.0         1
-1.04600050E+01 1.06642923E-01-1.05315850E-04 5.81104999E-08-1.36798900E-11    2
-1.95486462E+04 4.57876631E+01 7.53747133E+00-4.08648960E-02 3.52674893E-04    3
-5.80077576E-07 3.22863289E-10-2.13235608E+04-2.82218498E+01                   4
H1234Bz-hol-hcp         C   6H   10         S300.0     1000.0    485.7         1
-1.14663493E+01 1.11374410E-01-1.13181405E-04 6.39270852E-08-1.53060106E-11    2
-2.20480268E+04 4.95431844E+01 7.01682376E+00-4.23600312E-02 3.71307971E-04    3
-6.21554515E-07 3.51903307E-10-2.38442401E+04-2.61922877E+01                   4
H1245Bz-bri             C   6H   10         S300.0     1000.0    485.7         1
-1.21606453E+01 1.14507799E-01-1.18794304E-04 6.83052231E-08-1.65696166E-11    2
-2.01144730E+04 5.30054064E+01 6.80321127E+00-4.38201530E-02 3.81881808E-04    3
-6.42268667E-07 3.65138414E-10-2.19498350E+04-2.46249399E+01                   4
H12Bz-holB-hcp          C   6H   8          S300.0     1000.0    485.7         1
-1.01834261E+01 1.03841842E-01-1.12154262E-04 6.61368179E-08-1.62583315E-11    2
-1.36755742E+04 4.40138305E+01 4.65016071E+00-2.06675055E-02 2.83453188E-04    3
-4.97690500E-07 2.87755733E-10-1.51026014E+04-1.66247146E+01                   4
H12Bz-briB              C   6H   8          S300.0     1000.0    528.6         1
-1.07879578E+01 1.07009823E-01-1.16640595E-04 6.89900410E-08-1.69678453E-11    2
-1.35427004E+04 4.42295815E+01 2.05243764E+00-9.73422381E-04 2.24269679E-04    3
-4.10194570E-07 2.36135281E-10-1.47641986E+04-8.17926923E+00                   4
H1Bz-briA-fcc           C   6H   7          S300.0     1000.0    528.6         1
-1.05169363E+01 1.04271235E-01-1.17465651E-04 7.09521463E-08-1.76591058E-11    2
-1.70421635E+04 4.25700788E+01 6.84159516E-01 8.78815469E-03 1.87203062E-04    3
-3.60918252E-07 2.12000931E-10-1.80892238E+04-2.97616463E+00                   4
H1Bz-briA-hcp           C   6H   7          S300.0     1000.0    528.6         1
-1.05098849E+01 1.04378079E-01-1.17747475E-04 7.11963880E-08-1.77318719E-11    2
-1.71399041E+04 4.26430736E+01 7.47187532E-01 8.38264595E-03 1.88655386E-04    3
-3.63258528E-07 2.13363401E-10-1.81917516E+04-3.12637141E+00                   4
END