THERMO ALL
       100       500      1500
Bz-bri          20181209C   6H   6          S100.0     1500.0    271.4         1
-8.67714811E+00 9.12422463E-02-9.38908831E-05 4.91831092E-08-1.02179831E-11    2
-1.85474482E+04 3.38053419E+01-9.73636151E-01 3.35286305E-02-2.64952025E-06    3
 2.46626623E-07-4.97238965E-10-1.92450261E+04 2.28603246E+00                   4
Bz-hol-fcc      20181209C   6H   6          S100.0     1500.0    614.3         1
-2.79001341E+00 6.66570474E-02-5.70325559E-05 2.53377173E-08-4.58519129E-12    2
-1.56913914E+04 6.44788307E+00 3.72506497E-01 1.23557097E-02 1.60990412E-04    3
-3.11047835E-07 1.77169866E-10-1.54397104E+04-2.11436218E+00                   4
Bz-hol-hcp      20181209C   6H   6          S100.0     1500.0    614.3         1
-2.78835532E+00 6.66990754E-02-5.71048737E-05 2.53825093E-08-4.59495579E-12    2
-1.66066920E+04 6.35701036E+00 3.19145161E-01 1.24262974E-02 1.61911399E-04    3
-3.13616911E-07 1.79048832E-10-1.63433441E+04-1.92220941E+00                   4
CH-fcc          20181209C   6H  12          S100.0     1500.0    357.1         1
-9.18378578E+00 1.01517591E-01-8.18038186E-05 3.51508916E-08-6.31326067E-12    2
-2.99345649E+04 4.24803138E+01 1.05488657E+00 7.58650183E-02-3.31832122E-04    3
 1.17742965E-06-1.30740866E-09-3.12926547E+04-4.64980953E+00                   4
CH-hcp          20181209C   6H  12          S100.0     1500.0    357.1         1
-9.19214796E+00 1.01726221E-01-8.21754377E-05 3.54006569E-08-6.37259215E-12    2
-3.00042049E+04 4.29096277E+01 1.07493394E+00 7.54627946E-02-3.29043461E-04    3
 1.17142165E-06-1.30315684E-09-3.13610289E+04-4.29339042E+00                   4
H12345Bz-hol-fcc20181209C   6H  11          S100.0     1500.0    357.1         1
-9.37178062E+00 1.00626382E-01-8.48772781E-05 3.81290388E-08-7.10970030E-12    2
-2.65837149E+04 4.10618866E+01-2.01294898E-01 7.41210344E-02-2.85270358E-04    3
 1.00631790E-06-1.12716794E-09-2.77619195E+04-7.43081648E-01                   4
H12345Bz-hol-hcp20181209C   6H  11          S100.0     1500.0    357.1         1
-9.46934547E+00 1.01086725E-01-8.55901664E-05 3.85879160E-08-7.21621618E-12    2
-2.63475486E+04 4.10883453E+01-4.31646811E-01 7.49494888E-02-2.83188172E-04    3
 9.93211469E-07-1.11125535E-09-2.75076893E+04-1.04978890E-01                   4
H1234Bz-briA-fcc20181209C   6H  10          S100.0     1500.0    328.6         1
-8.04690442E+00 9.35533514E-02-7.93934324E-05 3.58895437E-08-6.72081198E-12    2
-2.03591424E+04 3.52342104E+01-3.59223850E-01 8.59646354E-02-3.96684047E-04    3
 1.36235694E-06-1.54369990E-09-2.14116474E+04-8.99196805E-01                   4
H1234Bz-briB    20181209C   6H  10          S100.0     1500.0    357.1         1
-8.27127052E+00 9.47023359E-02-8.08987142E-05 3.67579550E-08-6.91248980E-12    2
-2.13894306E+04 3.59044396E+01-1.74792395E-01 7.48820592E-02-2.92346324E-04    3
 1.00243286E-06-1.11436111E-09-2.24469743E+04-1.28299708E+00                   4
H1234Bz-hol-fcc 20181209C   6H  10          S100.0     1500.0    328.6         1
-8.79850963E+00 9.65256476E-02-8.36684935E-05 3.85614218E-08-7.33439391E-12    2
-2.22409974E+04 3.83316028E+01-3.60964041E-01 7.60079288E-02-3.22804896E-04    3
 1.15926953E-06-1.34266158E-09-2.33209945E+04-2.72373300E-01                   4
H1235Bz-bri-fcc 20181209C   6H  10          S100.0     1500.0    328.6         1
-1.00728545E+01 1.01541042E-01-9.02359310E-05 4.23833194E-08-8.17292902E-12    2
-2.34056211E+04 4.17982458E+01-1.22693401E+00 6.61524217E-02-2.17321143E-04    3
 8.36909159E-07-1.00634099E-09-2.44497835E+04 2.53991277E+00                   4
H1235Bz-bri-hcp 20181209C   6H  10          S100.0     1500.0    328.6         1
-1.00626991E+01 1.01660565E-01-9.05416292E-05 4.26253483E-08-8.23609359E-12    2
-2.32393863E+04 4.17161119E+01-1.21760813E+00 6.53392567E-02-2.09475459E-04    3
 8.12537240E-07-9.80821617E-10-2.42771868E+04 2.54552773E+00                   4
H123Bz-bri-fcc  20181209C   6H   9          S100.0     1500.0    328.6         1
-8.64053625E+00 9.47028860E-02-8.53273898E-05 4.05676043E-08-7.89152139E-12    2
-2.15221302E+04 3.60096501E+01-8.78103322E-01 6.69755111E-02-2.29287840E-04    3
 8.44677068E-07-1.00248394E-09-2.24549694E+04 1.29977656E+00                   4
H123Bz-bri-hcp  20181209C   6H   9          S100.0     1500.0    328.6         1
-8.59367091E+00 9.45539278E-02-8.51169971E-05 4.04394712E-08-7.86326139E-12    2
-2.18563743E+04 3.58906784E+01-7.59228958E-01 6.59009686E-02-2.25000352E-04    3
 8.37310436E-07-9.98307692E-10-2.27932044E+04 9.21073247E-01                   4
H123Bz-hol-fcc  20181209C   6H   9          S100.0     1500.0    328.6         1
-9.33532121E+00 9.75844645E-02-8.93644164E-05 4.30457605E-08-8.45632094E-12    2
-2.28339614E+04 3.81645034E+01-1.24600227E+00 6.33509439E-02-1.96174949E-04    3
 7.60595447E-07-9.29483024E-10-2.37663986E+04 2.50193805E+00                   4
H123Bz-hol-hcp  20181209C   6H   9          S100.0     1500.0    328.6         1
-9.27663185E+00 9.75720949E-02-8.94607045E-05 4.31390722E-08-8.48189962E-12    2
-2.27403756E+04 3.80530506E+01-1.03016955E+00 6.12388291E-02-1.86111706E-04    3
 7.39233476E-07-9.12680747E-10-2.36816019E+04 1.82604344E+00                   4
H124Bz-bri-fcc  20181209C   6H   9          S100.0     1500.0    328.6         1
-8.84242996E+00 9.55286460E-02-8.64095306E-05 4.12090148E-08-8.03628881E-12    2
-1.85097418E+04 3.65177298E+01-1.35033422E+00 7.41830885E-02-2.80025441E-04    3
 1.00107946E-06-1.17392667E-09-1.94337692E+04 2.61528623E+00                   4
H124Bz-bri-hcp  20181209C   6H   9          S100.0     1500.0    328.6         1
-8.83038405E+00 9.55434039E-02-8.66302750E-05 4.14258651E-08-8.09623299E-12    2
-1.84613552E+04 3.66594114E+01-1.04498554E+00 7.08241773E-02-2.64456522E-04    3
 9.66271114E-07-1.14360059E-09-1.94075595E+04 1.63912479E+00                   4
H124Bz-hol-fcc  20181209C   6H   9          S100.0     1500.0    328.6         1
-9.92061805E+00 9.98576601E-02-9.27447350E-05 4.52016020E-08-8.95590588E-12    2
-2.15902627E+04 4.07179692E+01-1.16269507E+00 6.21467741E-02-2.07641160E-04    3
 8.34408082E-07-1.03279503E-09-2.25891169E+04 2.21234107E+00                   4
H124Bz-hol-hcp  20181209C   6H   9          S100.0     1500.0    328.6         1
-9.90809762E+00 9.99575194E-02-9.29337615E-05 4.53299030E-08-8.98677502E-12    2
-2.16387614E+04 4.06490439E+01-1.16732772E+00 6.26998293E-02-2.12018457E-04    3
 8.49185961E-07-1.05003420E-09-2.26364262E+04 2.19691096E+00                   4
H12Bz-briA-fcc  20181209C   6H   8          S100.0     1500.0    414.3         1
-8.09093902E+00 9.09446540E-02-8.36664529E-05 4.02041596E-08-7.84622177E-12    2
-1.98734033E+04 3.21398618E+01-4.36420532E-01 4.18313567E-02-3.52661335E-05    3
 2.37245500E-07-3.36705865E-10-2.06254291E+04-4.54591846E-02                   4
H12Bz-briA-hcp  20181209C   6H   8          S100.0     1500.0    414.3         1
-8.02397358E+00 9.06901160E-02-8.33498448E-05 4.00323264E-08-7.81126285E-12    2
-1.97900598E+04 3.19602707E+01-2.70465123E-01 4.01805635E-02-2.77227342E-05    3
 2.20895792E-07-3.23439859E-10-2.05477142E+04-5.77343998E-01                   4
H12Bz-holA-fcc  20181209C   6H   8          S100.0     1500.0    442.9         1
-7.84720760E+00 8.94022335E-02-8.14186545E-05 3.87886978E-08-7.51296393E-12    2
-1.93287895E+04 3.15926095E+01 9.18387793E-01 2.24425891E-02 6.61567762E-05    3
-5.64343742E-09-1.18291880E-10-2.01124054E+04-4.28457773E+00                   4
H12Bz-holA-hcp  20181209C   6H   8          S100.0     1500.0    442.9         1
-7.79806463E+00 8.92708486E-02-8.12388691E-05 3.86786546E-08-7.48841715E-12    2
-1.96433866E+04 3.13852948E+01 1.00284962E+00 2.16500045E-02 6.99214285E-05    3
-1.35178545E-08-1.12317373E-10-2.04272008E+04-4.59824361E+00                   4
H12Bz-holB-fcc  20181209C   6H   8          S100.0     1500.0    328.6         1
-7.79223481E+00 9.00729028E-02-8.34962706E-05 4.06425688E-08-8.04055221E-12    2
-1.40294009E+04 3.34796860E+01-3.32679229E-03 5.52741251E-02-1.73452108E-04    3
 7.04663509E-07-8.80683104E-10-1.49129970E+04-6.74206423E-01                   4
H135Bz-hol-fcc  20181209C   6H   9          S100.0     1500.0    442.9         1
-9.41567679E+00 9.67928866E-02-8.68868119E-05 4.08562922E-08-7.83937237E-12    2
-2.26982168E+04 3.73850224E+01-1.07574163E-01 2.48590507E-02 7.54464432E-05    3
-1.99218916E-08-1.13888477E-10-2.35205003E+04-6.14350378E-01                   4
H135Bz-hol-hcp  20181209C   6H   9          S100.0     1500.0    442.9         1
-9.40429252E+00 9.67308522E-02-8.67623067E-05 4.07663432E-08-7.81743016E-12    2
-2.26770003E+04 3.73587341E+01-7.51643922E-02 2.45411021E-02 7.68527929E-05    3
-2.28664236E-08-1.11549198E-10-2.35010561E+04-7.20757375E-01                   4
H13Bz-bri-fcc   20181209C   6H   8          S100.0     1500.0    500.0         1
-7.03973819E+00 8.66742518E-02-7.69643655E-05 3.56729586E-08-6.73819961E-12    2
-1.92040873E+04 2.61569020E+01 4.13076175E-01 1.18621622E-02 1.66865646E-04    3
-2.82115595E-07 1.31804707E-10-1.96390141E+04-2.15566837E+00                   4
H13Bz-bri-hcp   20181209C   6H   8          S100.0     1500.0    500.0         1
-7.06126683E+00 8.67054007E-02-7.69864980E-05 3.56808898E-08-6.73930953E-12    2
-1.93774338E+04 2.62308789E+01 3.67752976E-01 1.23177896E-02 1.64704853E-04    3
-2.77817007E-07 1.28760916E-10-1.98124371E+04-2.00995979E+00                   4
H13Bz-hol-fcc   20181209C   6H   8          S100.0     1500.0    300.0         1
-9.40655981E+00 9.62819905E-02-9.18013620E-05 4.55749111E-08-9.13812503E-12    2
-2.05570684E+04 3.80260273E+01-1.02331044E+00 4.96505594E-02-1.15180485E-04    3
 5.61871485E-07-7.70103488E-10-2.14388881E+04 2.14557202E+00                   4
H13Bz-hol-hcp   20181209C   6H   8          S100.0     1500.0    300.0         1
-9.44575544E+00 9.64773173E-02-9.20647704E-05 4.57311516E-08-9.17319418E-12    2
-2.07700849E+04 3.81813410E+01-9.81130597E-01 4.86443118E-02-1.09063909E-04    3
 5.47062035E-07-7.56819122E-10-2.16558340E+04 2.01783010E+00                   4
H14Bz-briA      20181209C   6H   8          S100.0     1500.0    414.3         1
-7.54099274E+00 8.90430659E-02-8.14343269E-05 3.90308235E-08-7.61115131E-12    2
-1.51105104E+04 3.00110258E+01-5.41972857E-01 4.75715205E-02-6.56384641E-05    3
 2.97374229E-07-3.79626459E-10-1.58201018E+04 2.73086866E-01                   4
H14Bz-briB      20181209C   6H   8          S100.0     1500.0    500.0         1
-7.41835968E+00 8.78978274E-02-7.85221551E-05 3.65596667E-08-6.92671182E-12    2
-1.95498791E+04 2.75367469E+01 3.47531323E-01 9.85512788E-03 1.75354851E-04    3
-2.92345826E-07 1.34441221E-10-2.00000970E+04-1.94297668E+00                   4
H14Bz-hol-fcc   20181209C   6H   8          S100.0     1500.0    300.0         1
-9.41400543E+00 9.67055287E-02-9.28396797E-05 4.63798789E-08-9.34369057E-12    2
-1.84233801E+04 3.78699910E+01-1.39521808E+00 5.68961464E-02-1.64149108E-04    3
 7.09089536E-07-9.33845547E-10-1.92884884E+04 3.19204051E+00                   4
H14Bz-hol-hcp   20181209C   6H   8          S100.0     1500.0    300.0         1
-9.46988281E+00 9.67075159E-02-9.26839810E-05 4.62269853E-08-9.30073595E-12    2
-1.83712802E+04 3.80909677E+01-1.43823159E+00 5.69417910E-02-1.64088441E-04    3
 7.06856026E-07-9.28779872E-10-1.92395847E+04 3.33937831E+00                   4
H1Bz-briB-fcc   20181209C   6H   7          S100.0     1500.0    614.3         1
-3.96570737E+00 7.27167048E-02-6.10494613E-05 2.66840680E-08-4.77135358E-12    2
-1.97347844E+04 1.11960471E+01 3.37174017E-01 8.16286885E-03 1.89059314E-04    3
-3.52293022E-07 1.97495302E-10-1.95710520E+04-1.88289678E+00                   4
H1Bz-briB-hcp   20181209C   6H   7          S100.0     1500.0    614.3         1
-3.95935799E+00 7.27083666E-02-6.10400451E-05 2.66782652E-08-4.77003237E-12    2
-2.00290988E+04 1.11632761E+01 3.42753489E-01 7.98197218E-03 1.90161920E-04    3
-3.54552498E-07 1.99021313E-10-1.98632498E+04-1.89112262E+00                   4
H1Bz-hol-fcc    20181209C   6H   7          S100.0     1500.0    500.0         1
-6.00265042E+00 8.08330838E-02-7.31028274E-05 3.43729432E-08-6.55521150E-12    2
-1.75633624E+04 2.19396235E+01 4.26062873E-01 1.61078992E-02 1.34690930E-04    3
-2.26916743E-07 9.88416319E-11-1.79212231E+04-2.38369293E+00                   4
H1Bz-hol-hcp    20181209C   6H   7          S100.0     1500.0    500.0         1
-6.03949697E+00 8.09100166E-02-7.31408100E-05 3.43716019E-08-6.55180598E-12    2
-1.79242854E+04 2.21163325E+01 4.88254305E-01 1.47337593E-02 1.41777897E-04    3
-2.41449849E-07 1.09443352E-10-1.82863346E+04-2.54765705E+00                   4
H1234Bz-briA-hcp20181209C   6H  10          S100.0     1500.0    328.6         1
-8.09711050E+00 9.36048771E-02-7.92874906E-05 3.57542995E-08-6.68023885E-12    2
-2.03871425E+04 3.51900749E+01-6.98895735E-01 8.95215504E-02-4.12842864E-04    3
 1.39638675E-06-1.57095707E-09-2.14200830E+04 1.35814324E-01                   4
H1234Bz-hol-hcp 20181209C   6H  10          S100.0     1500.0    328.6         1
-8.97321348E+00 9.73673144E-02-8.47713080E-05 3.91884950E-08-7.46889798E-12    2
-2.28977154E+04 3.84095316E+01-6.70035506E-01 7.81016568E-02-3.29753620E-04    3
 1.17459467E-06-1.35748046E-09-2.39636066E+04 3.57346871E-01                   4
H1245Bz-bri     20181209C   6H  10          S100.0     1500.0    328.6         1
-9.50107484E+00 9.94428351E-02-8.80178193E-05 4.13382050E-08-7.98024990E-12    2
-2.09835960E+04 4.11518657E+01-6.15137256E-01 7.32173304E-02-3.02078053E-04    3
 1.11423198E-06-1.30847707E-09-2.20866770E+04 9.35255175E-01                   4
H12Bz-holB-hcp  20181209C   6H   8          S100.0     1500.0    328.6         1
-7.75542357E+00 8.98490930E-02-8.31529452E-05 4.04236452E-08-7.98964488E-12    2
-1.44688705E+04 3.32386358E+01 3.92506246E-02 5.53179196E-02-1.75265143E-04    3
 7.10034239E-07-8.85574177E-10-1.53558114E+04-9.71890629E-01                   4
H12Bz-briB      20181209C   6H   8          S100.0     1500.0    300.0         1
-8.52205644E+00 9.35855452E-02-8.82349497E-05 4.34127164E-08-8.64767076E-12    2
-1.43042599E+04 3.42435847E+01-1.50749799E+00 6.76914465E-02-2.36779403E-04    3
 9.08570475E-07-1.14064965E-09-1.51082845E+04 3.19268334E+00                   4
H1Bz-briA-fcc   20181209C   6H   7          S100.0     1500.0    471.4         1
-6.36288038E+00 8.24102476E-02-7.54361749E-05 3.58860838E-08-6.91668289E-12    2
-1.81076201E+04 2.37252873E+01 4.85987563E-02 2.40062828E-02 9.02033021E-05    3
-1.23771508E-07 1.27719109E-11-1.85452157E+04-1.28246011E+00                   4
H1Bz-briA-hcp   20181209C   6H   7          S100.0     1500.0    471.4         1
-6.33444009E+00 8.24040944E-02-7.54998680E-05 3.59475651E-08-6.93321691E-12    2
-1.82085089E+04 2.37013419E+01 1.95409544E-01 2.26458221E-02 9.56823072E-05    3
-1.33554337E-07 1.92227873E-11-1.86535475E+04-1.74858196E+00                   4
END