THERMO ALL
       100       500      1500
Bz-bri                  C   6H   6          S100.0     1500.0    614.3         1
-3.60775697E+00 6.98417318E-02-6.12443714E-05 2.77846975E-08-5.11529969E-12    2
-1.94708157E+04 9.72084417E+00 1.45658561E-01 9.08513101E-03 1.85019345E-04    3
-3.60996481E-07 2.11086463E-10-1.92836723E+04-1.17593463E+00                   4
Bz-hol-fcc              C   6H   6          S100.0     1500.0    642.9         1
-2.79001352E+00 6.66570475E-02-5.70325561E-05 2.53377174E-08-4.58519131E-12    2
-1.56912701E+04 6.44806868E+00 3.72506495E-01 1.23557097E-02 1.60990411E-04    3
-3.11047832E-07 1.77169863E-10-1.54397104E+04-2.11436209E+00                   4
Bz-hol-hcp              C   6H   6          S100.0     1500.0    642.9         1
-2.78835543E+00 6.66990755E-02-5.71048738E-05 2.53825094E-08-4.59495581E-12    2
-1.66065389E+04 6.35724633E+00 3.19145159E-01 1.24262974E-02 1.61911397E-04    3
-3.13616907E-07 1.79048829E-10-1.63433441E+04-1.92220932E+00                   4
CH-fcc                  C   6H   12         S100.0     1500.0    385.7         1
-9.18378579E+00 1.01517591E-01-8.18038180E-05 3.51508912E-08-6.31326059E-12    2
-2.99350678E+04 4.24790354E+01 1.05488653E+00 7.58650187E-02-3.31832124E-04    3
 1.17742965E-06-1.30740866E-09-3.12926546E+04-4.64980929E+00                   4
CH-hcp                  C   6H   12         S100.0     1500.0    385.7         1
-9.19214797E+00 1.01726220E-01-8.21754372E-05 3.54006565E-08-6.37259207E-12    2
-3.00047396E+04 4.29082633E+01 1.07493391E+00 7.54627949E-02-3.29043463E-04    3
 1.17142166E-06-1.30315684E-09-3.13610289E+04-4.29339019E+00                   4
H12345Bz-hol-fcc        C   6H   11         S100.0     1500.0    385.7         1
-9.37178064E+00 1.00626382E-01-8.48772776E-05 3.81290385E-08-7.10970023E-12    2
-2.65845607E+04 4.10596695E+01-2.01294923E-01 7.41210346E-02-2.85270359E-04    3
 1.00631790E-06-1.12716794E-09-2.77619195E+04-7.43081448E-01                   4
H12345Bz-hol-hcp        C   6H   11         S100.0     1500.0    385.7         1
-9.46934549E+00 1.01086725E-01-8.55901659E-05 3.85879157E-08-7.21621611E-12    2
-2.63484119E+04 4.10860792E+01-4.31646835E-01 7.49494890E-02-2.83188173E-04    3
 9.93211469E-07-1.11125535E-09-2.75076892E+04-1.04978694E-01                   4
H1234Bz-briA-fcc        C   6H   10         S100.0     1500.0    357.1         1
-8.04690443E+00 9.35533511E-02-7.93934319E-05 3.58895433E-08-6.72081190E-12    2
-2.03589135E+04 3.52349655E+01-3.59223884E-01 8.59646358E-02-3.96684049E-04    3
 1.36235695E-06-1.54369990E-09-2.14116474E+04-8.99196578E-01                   4
H1234Bz-briB            C   6H   10         S100.0     1500.0    385.7         1
-8.27127055E+00 9.47023356E-02-8.08987137E-05 3.67579547E-08-6.91248973E-12    2
-2.13904224E+04 3.59018288E+01-1.74792425E-01 7.48820595E-02-2.92346327E-04    3
 1.00243286E-06-1.11436111E-09-2.24469743E+04-1.28299687E+00                   4
H1234Bz-hol-fcc         C   6H   10         S100.0     1500.0    357.1         1
-8.79850964E+00 9.65256473E-02-8.36684929E-05 3.85614214E-08-7.33439383E-12    2
-2.22408118E+04 3.83322213E+01-3.60964067E-01 7.60079291E-02-3.22804898E-04    3
 1.15926953E-06-1.34266157E-09-2.33209945E+04-2.72373100E-01                   4
H1235Bz-bri-fcc         C   6H   10         S100.0     1500.0    357.1         1
-1.00728545E+01 1.01541042E-01-9.02359304E-05 4.23833191E-08-8.17292894E-12    2
-2.34055713E+04 4.17984463E+01-1.22693402E+00 6.61524217E-02-2.17321143E-04    3
 8.36909155E-07-1.00634099E-09-2.44497835E+04 2.53991291E+00                   4
H1235Bz-bri-hcp         C   6H   10         S100.0     1500.0    357.1         1
-1.00626991E+01 1.01660565E-01-9.05416287E-05 4.26253480E-08-8.23609351E-12    2
-2.32393611E+04 4.17162390E+01-1.21760814E+00 6.53392566E-02-2.09475459E-04    3
 8.12537235E-07-9.80821607E-10-2.42771868E+04 2.54552786E+00                   4
H123Bz-bri-fcc          C   6H   9          S100.0     1500.0    357.1         1
-8.64053628E+00 9.47028857E-02-8.53273893E-05 4.05676040E-08-7.89152131E-12    2
-2.15222268E+04 3.60094228E+01-8.78103334E-01 6.69755111E-02-2.29287840E-04    3
 8.44677066E-07-1.00248393E-09-2.24549694E+04 1.29977671E+00                   4
H123Bz-bri-hcp          C   6H   9          S100.0     1500.0    357.1         1
-8.59367093E+00 9.45539275E-02-8.51169966E-05 4.04394709E-08-7.86326132E-12    2
-2.18564856E+04 3.58904084E+01-7.59228971E-01 6.59009686E-02-2.25000353E-04    3
 8.37310435E-07-9.98307686E-10-2.27932044E+04 9.21073399E-01                   4
H123Bz-hol-fcc          C   6H   9          S100.0     1500.0    442.9         1
-8.72512270E+00 9.48505727E-02-8.49949344E-05 4.00742624E-08-7.72651149E-12    2
-2.29384916E+04 3.53028144E+01-3.51236947E-01 4.36185569E-02-4.39723735E-05    3
 2.70252522E-07-3.68020763E-10-2.37966534E+04-2.54994385E-01                   4
H123Bz-hol-hcp          C   6H   9          S100.0     1500.0    442.9         1
-8.65591641E+00 9.47905275E-02-8.50143078E-05 4.01148741E-08-7.73906795E-12    2
-2.28466555E+04 3.51422325E+01-1.38880671E-01 4.15805976E-02-3.44575196E-05    3
 2.50570063E-07-3.53031898E-10-2.37117348E+04-9.20072237E-01                   4
H124Bz-bri-fcc          C   6H   9          S100.0     1500.0    357.1         1
-8.84242998E+00 9.55286457E-02-8.64095301E-05 4.12090145E-08-8.03628874E-12    2
-1.85101071E+04 3.65167243E+01-1.35033424E+00 7.41830886E-02-2.80025442E-04    3
 1.00107946E-06-1.17392666E-09-1.94337692E+04 2.61528640E+00                   4
H124Bz-bri-hcp          C   6H   9          S100.0     1500.0    357.1         1
-8.83038408E+00 9.55434037E-02-8.66302745E-05 4.14258648E-08-8.09623292E-12    2
-1.84616906E+04 3.66584927E+01-1.04498556E+00 7.08241774E-02-2.64456523E-04    3
 9.66271114E-07-1.14360058E-09-1.94075595E+04 1.63912496E+00                   4
H124Bz-hol-fcc          C   6H   9          S100.0     1500.0    442.9         1
-9.22443668E+00 9.67356801E-02-8.77513087E-05 4.18037646E-08-8.12098098E-12    2
-2.17094032E+04 3.74536606E+01-1.24527134E-01 3.92308252E-02-3.06845650E-05    3
 2.63584241E-07-3.78257821E-10-2.26241843E+04-9.85557199E-01                   4
H124Bz-hol-hcp          C   6H   9          S100.0     1500.0    442.9         1
-9.19775536E+00 9.67713036E-02-8.78366526E-05 4.18609964E-08-8.13428323E-12    2
-2.17602970E+04 3.73184910E+01-1.08215378E-01 3.93187943E-02-3.14444569E-05    3
 2.66597090E-07-3.81885874E-10-2.26721963E+04-1.06538690E+00                   4
H12Bz-briA-fcc          C   6H   8          S100.0     1500.0    442.9         1
-8.09093910E+00 9.09446540E-02-8.36664528E-05 4.02041596E-08-7.84622175E-12    2
-1.98760365E+04 3.21337439E+01-4.36420565E-01 4.18313572E-02-3.52661376E-05    3
 2.37245509E-07-3.36705872E-10-2.06254291E+04-4.54589797E-02                   4
H12Bz-briA-hcp          C   6H   8          S100.0     1500.0    442.9         1
-8.02397365E+00 9.06901159E-02-8.33498447E-05 4.00323263E-08-7.81126283E-12    2
-1.97926667E+04 3.19542134E+01-2.70465156E-01 4.01805640E-02-2.77227384E-05    3
 2.20895802E-07-3.23439866E-10-2.05477142E+04-5.77343794E-01                   4
H12Bz-holA-fcc          C   6H   8          S100.0     1500.0    471.4         1
-7.84720768E+00 8.94022335E-02-8.14186544E-05 3.87886978E-08-7.51296393E-12    2
-1.93313774E+04 3.15869679E+01 9.18387762E-01 2.24425896E-02 6.61567719E-05    3
-5.64342703E-09-1.18291887E-10-2.01124054E+04-4.28457753E+00                   4
H12Bz-holA-hcp          C   6H   8          S100.0     1500.0    471.4         1
-7.79806471E+00 8.92708486E-02-8.12388691E-05 3.86786546E-08-7.48841715E-12    2
-1.96459649E+04 3.13796742E+01 1.00284959E+00 2.16500050E-02 6.99214241E-05    3
-1.35178440E-08-1.12317381E-10-2.04272007E+04-4.59824341E+00                   4
H12Bz-holB-fcc          C   6H   8          S100.0     1500.0    442.9         1
-7.23725636E+00 8.75874091E-02-7.95250720E-05 3.79426283E-08-7.37757878E-12    2
-1.41245356E+04 3.08766778E+01 9.05495815E-01 3.51981085E-02-1.82829465E-05    3
 2.03594811E-07-3.05468867E-10-1.49436693E+04-3.47304345E+00                   4
H135Bz-hol-fcc          C   6H   9          S100.0     1500.0    471.4         1
-9.41567688E+00 9.67928866E-02-8.68868118E-05 4.08562921E-08-7.83937236E-12    2
-2.27008754E+04 3.73792254E+01-1.07574188E-01 2.48590511E-02 7.54464393E-05    3
-1.99218825E-08-1.13888484E-10-2.35205003E+04-6.14350201E-01                   4
H135Bz-hol-hcp          C   6H   9          S100.0     1500.0    471.4         1
-9.40429261E+00 9.67308522E-02-8.67623067E-05 4.07663432E-08-7.81743015E-12    2
-2.26796466E+04 3.73529638E+01-7.51644175E-02 2.45411025E-02 7.68527890E-05    3
-2.28664144E-08-1.11549205E-10-2.35010560E+04-7.20757199E-01                   4
H13Bz-bri-fcc           C   6H   8          S100.0     1500.0    671.4         1
-4.04307120E+00 7.49524225E-02-6.02131344E-05 2.52878970E-08-4.37668408E-12    2
-1.98008770E+04 1.16720378E+01 6.55658010E-01 7.39541334E-03 1.94445957E-04    3
-3.50955364E-07 1.91392765E-10-1.96485507E+04-2.94144490E+00                   4
H13Bz-bri-hcp           C   6H   8          S100.0     1500.0    671.4         1
-4.06611288E+00 7.49895794E-02-6.02439621E-05 2.53012770E-08-4.37904437E-12    2
-1.99739476E+04 1.17532801E+01 6.18666715E-01 7.70376855E-03 1.93151290E-04    3
-3.48708292E-07 1.90032669E-10-1.98223044E+04-2.82299739E+00                   4
H13Bz-hol-fcc           C   6H   8          S100.0     1500.0    471.4         1
-8.09207082E+00 9.04624998E-02-8.25872475E-05 3.93553923E-08-7.61974365E-12    2
-2.07835020E+04 3.18492953E+01 7.59699025E-02 2.55575868E-02 6.96462310E-05    3
-3.16614145E-08-9.02954479E-11-2.14764357E+04-1.24869056E+00                   4
H13Bz-hol-hcp           C   6H   8          S100.0     1500.0    500.0         1
-7.57152662E+00 8.82869518E-02-7.92295156E-05 3.71381711E-08-7.08922874E-12    2
-2.10980560E+04 2.93472561E+01 3.46456581E-01 2.00359167E-02 1.06193503E-04    3
-1.30248723E-07 3.43756311E-12-2.17019996E+04-2.10229347E+00                   4
H14Bz-briA              C   6H   8          S100.0     1500.0    442.9         1
-7.54099281E+00 8.90430658E-02-8.14343268E-05 3.90308234E-08-7.61115130E-12    2
-1.51131292E+04 3.00049426E+01-5.41972889E-01 4.75715210E-02-6.56384679E-05    3
 2.97374238E-07-3.79626465E-10-1.58201018E+04 2.73087071E-01                   4
H14Bz-briB              C   6H   8          S100.0     1500.0    528.6         1
-7.41835979E+00 8.78978275E-02-7.85221552E-05 3.65596667E-08-6.92671184E-12    2
-1.95519908E+04 2.75326475E+01 3.47531303E-01 9.85512820E-03 1.75354848E-04    3
-2.92345817E-07 1.34441214E-10-2.00000970E+04-1.94297652E+00                   4
H14Bz-hol-fcc           C   6H   8          S100.0     1500.0    471.4         1
-8.03096028E+00 9.05763932E-02-8.31272797E-05 3.98195546E-08-7.74120459E-12    2
-1.86614487E+04 3.13722980E+01-1.02407617E-01 2.84513667E-02 5.51226563E-05    3
 9.05155237E-10-1.17462837E-10-1.93324778E+04-7.95269816E-01                   4
H14Bz-hol-hcp           C   6H   8          S100.0     1500.0    471.4         1
-8.11223975E+00 9.06940756E-02-8.31589909E-05 3.97955147E-08-7.73018308E-12    2
-1.86051235E+04 3.17118690E+01-1.56758824E-01 2.87616810E-02 5.29977304E-05    3
 6.27873986E-09-1.21872749E-10-1.92832118E+04-6.13589185E-01                   4
H1Bz-briB-fcc           C   6H   7          S100.0     1500.0    642.9         1
-3.96570748E+00 7.27167049E-02-6.10494615E-05 2.66840680E-08-4.77135360E-12    2
-1.97347344E+04 1.11961193E+01 3.37174014E-01 8.16286885E-03 1.89059313E-04    3
-3.52293018E-07 1.97495299E-10-1.95710520E+04-1.88289669E+00                   4
H1Bz-briB-hcp           C   6H   7          S100.0     1500.0    642.9         1
-3.95935810E+00 7.27083667E-02-6.10400452E-05 2.66782653E-08-4.77003238E-12    2
-2.00290194E+04 1.11633949E+01 3.42753486E-01 7.98197217E-03 1.90161918E-04    3
-3.54552493E-07 1.99021310E-10-1.98632498E+04-1.89112252E+00                   4
H1Bz-hol-fcc            C   6H   7          S100.0     1500.0    528.6         1
-6.00265052E+00 8.08330839E-02-7.31028275E-05 3.43729433E-08-6.55521151E-12    2
-1.75653503E+04 2.19357649E+01 4.26062853E-01 1.61078995E-02 1.34690926E-04    3
-2.26916735E-07 9.88416258E-11-1.79212231E+04-2.38369278E+00                   4
H1Bz-hol-hcp            C   6H   7          S100.0     1500.0    671.4         1
-3.11907871E+00 6.94888671E-02-5.68222323E-05 2.42563372E-08-4.25194678E-12    2
-1.85061064E+04 7.99927114E+00 7.46818957E-01 9.98911636E-03 1.70959365E-04    3
-3.13995330E-07 1.71998389E-10-1.82965078E+04-3.38593238E+00                   4
H1234Bz-briA-hcp        C   6H   10         S100.0     1500.0    357.1         1
-8.09711051E+00 9.36048767E-02-7.92874901E-05 3.57542991E-08-6.68023876E-12    2
-2.03869087E+04 3.51908444E+01-6.98895768E-01 8.95215507E-02-4.12842866E-04    3
 1.39638675E-06-1.57095707E-09-2.14200829E+04 1.35814548E-01                   4
H1234Bz-hol-hcp         C   6H   10         S100.0     1500.0    357.1         1
-8.97321349E+00 9.73673140E-02-8.47713074E-05 3.91884946E-08-7.46889789E-12    2
-2.28976124E+04 3.84099082E+01-6.70035531E-01 7.81016570E-02-3.29753621E-04    3
 1.17459467E-06-1.35748045E-09-2.39636066E+04 3.57347068E-01                   4
H1245Bz-bri             C   6H   10         S100.0     1500.0    357.1         1
-9.50107486E+00 9.94428348E-02-8.80178187E-05 4.13382046E-08-7.98024981E-12    2
-2.09835984E+04 4.11519317E+01-6.15137277E-01 7.32173305E-02-3.02078054E-04    3
 1.11423198E-06-1.30847706E-09-2.20866769E+04 9.35255357E-01                   4
H12Bz-holB-hcp          C   6H   8          S100.0     1500.0    442.9         1
-7.21756132E+00 8.74412370E-02-7.93070569E-05 3.78095962E-08-7.34790162E-12    2
-1.45611376E+04 3.07156281E+01 9.50169561E-01 3.51954034E-02-1.97347642E-05    3
 2.07792296E-07-3.09004392E-10-1.53865540E+04-3.77717561E+00                   4
H12Bz-briB              C   6H   8          S100.0     1500.0    442.9         1
-7.79635563E+00 9.03338842E-02-8.30378482E-05 3.98784584E-08-7.77967797E-12    2
-1.44276449E+04 3.08430576E+01-3.09513427E-01 4.07415512E-02-2.36035353E-05    3
 2.00604521E-07-3.00822748E-10-1.51480682E+04-4.77348353E-01                   4
H1Bz-briA-fcc           C   6H   7          S100.0     1500.0    500.0         1
-6.36288047E+00 8.24102477E-02-7.54361750E-05 3.58860838E-08-6.91668289E-12    2
-1.81099230E+04 2.37205574E+01 4.85987319E-02 2.40062831E-02 9.02032986E-05    3
-1.23771500E-07 1.27719043E-11-1.85452157E+04-1.28245994E+00                   4
H1Bz-briA-hcp           C   6H   7          S100.0     1500.0    500.0         1
-6.33444018E+00 8.24040944E-02-7.54998680E-05 3.59475652E-08-6.93321691E-12    2
-1.82108082E+04 2.36966190E+01 1.95409520E-01 2.26458224E-02 9.56823036E-05    3
-1.33554328E-07 1.92227805E-11-1.86535475E+04-1.74858179E+00                   4
END