THERMO ALL
       100       500      1500
Bz-bri          20180912C   6H   6          S100.0     1500.0    614.3         1
-3.60775686E+00 6.98417317E-02-6.12443713E-05 2.77846974E-08-5.11529968E-12    2
-1.94708157E+04 9.72084354E+00 1.45658562E-01 9.08513104E-03 1.85019346E-04    3
-3.60996485E-07 2.11086467E-10-1.92836723E+04-1.17593472E+00                   4
Bz-hol-fcc      20180912C   6H   6          S100.0     1500.0    642.9         1
-2.79001341E+00 6.66570474E-02-5.70325559E-05 2.53377173E-08-4.58519129E-12    2
-1.56912701E+04 6.44806806E+00 3.72506497E-01 1.23557097E-02 1.60990412E-04    3
-3.11047835E-07 1.77169866E-10-1.54397104E+04-2.11436218E+00                   4
Bz-hol-hcp      20180912C   6H   6          S100.0     1500.0    642.9         1
-2.78835532E+00 6.66990754E-02-5.71048737E-05 2.53825093E-08-4.59495579E-12    2
-1.66065389E+04 6.35724571E+00 3.19145161E-01 1.24262974E-02 1.61911399E-04    3
-3.13616911E-07 1.79048832E-10-1.63433441E+04-1.92220941E+00                   4
CH-fcc          20180912C   6H  12          S100.0     1500.0    385.7         1
-9.18378578E+00 1.01517591E-01-8.18038186E-05 3.51508916E-08-6.31326067E-12    2
-2.99350678E+04 4.24790352E+01 1.05488657E+00 7.58650183E-02-3.31832122E-04    3
 1.17742965E-06-1.30740866E-09-3.12926547E+04-4.64980953E+00                   4
CH-hcp          20180912C   6H  12          S100.0     1500.0    385.7         1
-9.19214796E+00 1.01726221E-01-8.21754377E-05 3.54006569E-08-6.37259215E-12    2
-3.00047396E+04 4.29082631E+01 1.07493394E+00 7.54627946E-02-3.29043461E-04    3
 1.17142165E-06-1.30315684E-09-3.13610289E+04-4.29339042E+00                   4
H12345Bz-hol-fcc20180912C   6H  11          S100.0     1500.0    385.7         1
-9.37178062E+00 1.00626382E-01-8.48772781E-05 3.81290388E-08-7.10970030E-12    2
-2.65845607E+04 4.10596692E+01-2.01294898E-01 7.41210344E-02-2.85270358E-04    3
 1.00631790E-06-1.12716794E-09-2.77619195E+04-7.43081648E-01                   4
H12345Bz-hol-hcp20180912C   6H  11          S100.0     1500.0    385.7         1
-9.46934547E+00 1.01086725E-01-8.55901664E-05 3.85879160E-08-7.21621618E-12    2
-2.63484120E+04 4.10860789E+01-4.31646811E-01 7.49494888E-02-2.83188172E-04    3
 9.93211469E-07-1.11125535E-09-2.75076893E+04-1.04978890E-01                   4
H1234Bz-briA-fcc20180912C   6H  10          S100.0     1500.0    357.1         1
-8.04690442E+00 9.35533514E-02-7.93934324E-05 3.58895437E-08-6.72081198E-12    2
-2.03589135E+04 3.52349653E+01-3.59223850E-01 8.59646354E-02-3.96684047E-04    3
 1.36235694E-06-1.54369990E-09-2.14116474E+04-8.99196805E-01                   4
H1234Bz-briB    20180912C   6H  10          S100.0     1500.0    385.7         1
-8.27127052E+00 9.47023359E-02-8.08987142E-05 3.67579550E-08-6.91248980E-12    2
-2.13904225E+04 3.59018286E+01-1.74792395E-01 7.48820592E-02-2.92346324E-04    3
 1.00243286E-06-1.11436111E-09-2.24469743E+04-1.28299708E+00                   4
H1234Bz-hol-fcc 20180912C   6H  10          S100.0     1500.0    357.1         1
-8.79850963E+00 9.65256476E-02-8.36684935E-05 3.85614218E-08-7.33439391E-12    2
-2.22408118E+04 3.83322211E+01-3.60964041E-01 7.60079288E-02-3.22804896E-04    3
 1.15926953E-06-1.34266158E-09-2.33209945E+04-2.72373300E-01                   4
H1235Bz-bri-fcc 20180912C   6H  10          S100.0     1500.0    357.1         1
-1.00728545E+01 1.01541042E-01-9.02359310E-05 4.23833194E-08-8.17292902E-12    2
-2.34055713E+04 4.17984461E+01-1.22693401E+00 6.61524217E-02-2.17321143E-04    3
 8.36909159E-07-1.00634099E-09-2.44497835E+04 2.53991277E+00                   4
H1235Bz-bri-hcp 20180912C   6H  10          S100.0     1500.0    357.1         1
-1.00626991E+01 1.01660565E-01-9.05416292E-05 4.26253483E-08-8.23609359E-12    2
-2.32393611E+04 4.17162388E+01-1.21760813E+00 6.53392567E-02-2.09475459E-04    3
 8.12537240E-07-9.80821617E-10-2.42771868E+04 2.54552773E+00                   4
H123Bz-bri-fcc  20180912C   6H   9          S100.0     1500.0    357.1         1
-8.64053625E+00 9.47028860E-02-8.53273898E-05 4.05676043E-08-7.89152139E-12    2
-2.15222268E+04 3.60094226E+01-8.78103322E-01 6.69755111E-02-2.29287840E-04    3
 8.44677068E-07-1.00248394E-09-2.24549694E+04 1.29977656E+00                   4
H123Bz-bri-hcp  20180912C   6H   9          S100.0     1500.0    357.1         1
-8.59367091E+00 9.45539278E-02-8.51169971E-05 4.04394712E-08-7.86326139E-12    2
-2.18564856E+04 3.58904082E+01-7.59228958E-01 6.59009686E-02-2.25000352E-04    3
 8.37310436E-07-9.98307692E-10-2.27932044E+04 9.21073247E-01                   4
H123Bz-hol-fcc  20180912C   6H   9          S100.0     1500.0    442.9         1
-8.72512263E+00 9.48505728E-02-8.49949345E-05 4.00742625E-08-7.72651151E-12    2
-2.29384916E+04 3.53028139E+01-3.51236917E-01 4.36185565E-02-4.39723698E-05    3
 2.70252514E-07-3.68020757E-10-2.37966534E+04-2.54994583E-01                   4
H123Bz-hol-hcp  20180912C   6H   9          S100.0     1500.0    442.9         1
-8.65591634E+00 9.47905275E-02-8.50143080E-05 4.01148742E-08-7.73906797E-12    2
-2.28466555E+04 3.51422320E+01-1.38880642E-01 4.15805972E-02-3.44575159E-05    3
 2.50570055E-07-3.53031892E-10-2.37117348E+04-9.20072435E-01                   4
H124Bz-bri-fcc  20180912C   6H   9          S100.0     1500.0    357.1         1
-8.84242996E+00 9.55286460E-02-8.64095306E-05 4.12090148E-08-8.03628881E-12    2
-1.85101071E+04 3.65167240E+01-1.35033422E+00 7.41830885E-02-2.80025441E-04    3
 1.00107946E-06-1.17392667E-09-1.94337692E+04 2.61528623E+00                   4
H124Bz-bri-hcp  20180912C   6H   9          S100.0     1500.0    357.1         1
-8.83038405E+00 9.55434039E-02-8.66302750E-05 4.14258651E-08-8.09623299E-12    2
-1.84616906E+04 3.66584925E+01-1.04498554E+00 7.08241773E-02-2.64456522E-04    3
 9.66271114E-07-1.14360059E-09-1.94075595E+04 1.63912479E+00                   4
H124Bz-hol-fcc  20180912C   6H   9          S100.0     1500.0    442.9         1
-9.22443660E+00 9.67356802E-02-8.77513088E-05 4.18037647E-08-8.12098100E-12    2
-2.17094032E+04 3.74536601E+01-1.24527100E-01 3.92308247E-02-3.06845607E-05    3
 2.63584231E-07-3.78257814E-10-2.26241843E+04-9.85557409E-01                   4
H124Bz-hol-hcp  20180912C   6H   9          S100.0     1500.0    442.9         1
-9.19775528E+00 9.67713037E-02-8.78366528E-05 4.18609965E-08-8.13428325E-12    2
-2.17602970E+04 3.73184906E+01-1.08215343E-01 3.93187938E-02-3.14444524E-05    3
 2.66597080E-07-3.81885867E-10-2.26721963E+04-1.06538711E+00                   4
H12Bz-briA-fcc  20180912C   6H   8          S100.0     1500.0    442.9         1
-8.09093902E+00 9.09446540E-02-8.36664529E-05 4.02041596E-08-7.84622177E-12    2
-1.98760365E+04 3.21337434E+01-4.36420532E-01 4.18313567E-02-3.52661335E-05    3
 2.37245500E-07-3.36705865E-10-2.06254291E+04-4.54591846E-02                   4
H12Bz-briA-hcp  20180912C   6H   8          S100.0     1500.0    442.9         1
-8.02397358E+00 9.06901160E-02-8.33498448E-05 4.00323264E-08-7.81126285E-12    2
-1.97926667E+04 3.19542130E+01-2.70465123E-01 4.01805635E-02-2.77227342E-05    3
 2.20895792E-07-3.23439859E-10-2.05477142E+04-5.77343998E-01                   4
H12Bz-holA-fcc  20180912C   6H   8          S100.0     1500.0    471.4         1
-7.84720760E+00 8.94022335E-02-8.14186545E-05 3.87886978E-08-7.51296393E-12    2
-1.93313774E+04 3.15869674E+01 9.18387793E-01 2.24425891E-02 6.61567762E-05    3
-5.64343742E-09-1.18291880E-10-2.01124054E+04-4.28457773E+00                   4
H12Bz-holA-hcp  20180912C   6H   8          S100.0     1500.0    471.4         1
-7.79806463E+00 8.92708486E-02-8.12388691E-05 3.86786546E-08-7.48841715E-12    2
-1.96459649E+04 3.13796737E+01 1.00284962E+00 2.16500045E-02 6.99214285E-05    3
-1.35178545E-08-1.12317373E-10-2.04272008E+04-4.59824361E+00                   4
H12Bz-holB-fcc  20180912C   6H   8          S100.0     1500.0    442.9         1
-7.23725630E+00 8.75874092E-02-7.95250722E-05 3.79426284E-08-7.37757880E-12    2
-1.41245356E+04 3.08766774E+01 9.05495845E-01 3.51981081E-02-1.82829427E-05    3
 2.03594802E-07-3.05468860E-10-1.49436693E+04-3.47304365E+00                   4
H135Bz-hol-fcc  20180912C   6H   9          S100.0     1500.0    471.4         1
-9.41567679E+00 9.67928866E-02-8.68868119E-05 4.08562922E-08-7.83937237E-12    2
-2.27008754E+04 3.73792248E+01-1.07574163E-01 2.48590507E-02 7.54464432E-05    3
-1.99218916E-08-1.13888477E-10-2.35205003E+04-6.14350378E-01                   4
H135Bz-hol-hcp  20180912C   6H   9          S100.0     1500.0    471.4         1
-9.40429252E+00 9.67308522E-02-8.67623067E-05 4.07663432E-08-7.81743016E-12    2
-2.26796467E+04 3.73529632E+01-7.51643922E-02 2.45411021E-02 7.68527929E-05    3
-2.28664236E-08-1.11549198E-10-2.35010561E+04-7.20757375E-01                   4
H13Bz-bri-fcc   20180912C   6H   8          S100.0     1500.0    671.4         1
-4.04307110E+00 7.49524224E-02-6.02131343E-05 2.52878969E-08-4.37668407E-12    2
-1.98008770E+04 1.16720372E+01 6.55658011E-01 7.39541338E-03 1.94445958E-04    3
-3.50955368E-07 1.91392768E-10-1.96485507E+04-2.94144499E+00                   4
H13Bz-bri-hcp   20180912C   6H   8          S100.0     1500.0    671.4         1
-4.06611277E+00 7.49895793E-02-6.02439620E-05 2.53012770E-08-4.37904436E-12    2
-1.99739476E+04 1.17532795E+01 6.18666716E-01 7.70376858E-03 1.93151292E-04    3
-3.48708296E-07 1.90032672E-10-1.98223044E+04-2.82299748E+00                   4
H13Bz-hol-fcc   20180912C   6H   8          S100.0     1500.0    471.4         1
-8.09207073E+00 9.04624998E-02-8.25872475E-05 3.93553924E-08-7.61974365E-12    2
-2.07835020E+04 3.18492948E+01 7.59699268E-02 2.55575864E-02 6.96462346E-05    3
-3.16614233E-08-9.02954413E-11-2.14764358E+04-1.24869073E+00                   4
H13Bz-hol-hcp   20180912C   6H   8          S100.0     1500.0    500.0         1
-7.57152653E+00 8.82869518E-02-7.92295156E-05 3.71381711E-08-7.08922874E-12    2
-2.10980561E+04 2.93472555E+01 3.46456606E-01 2.00359163E-02 1.06193507E-04    3
-1.30248732E-07 3.43756985E-12-2.17019996E+04-2.10229364E+00                   4
H14Bz-briA      20180912C   6H   8          S100.0     1500.0    442.9         1
-7.54099274E+00 8.90430659E-02-8.14343269E-05 3.90308235E-08-7.61115131E-12    2
-1.51131293E+04 3.00049421E+01-5.41972857E-01 4.75715205E-02-6.56384641E-05    3
 2.97374229E-07-3.79626459E-10-1.58201018E+04 2.73086866E-01                   4
H14Bz-briB      20180912C   6H   8          S100.0     1500.0    528.6         1
-7.41835968E+00 8.78978274E-02-7.85221551E-05 3.65596667E-08-6.92671182E-12    2
-1.95519908E+04 2.75326469E+01 3.47531323E-01 9.85512788E-03 1.75354851E-04    3
-2.92345826E-07 1.34441221E-10-2.00000970E+04-1.94297668E+00                   4
H14Bz-hol-fcc   20180912C   6H   8          S100.0     1500.0    471.4         1
-8.03096019E+00 9.05763932E-02-8.31272797E-05 3.98195546E-08-7.74120459E-12    2
-1.86614487E+04 3.13722975E+01-1.02407589E-01 2.84513663E-02 5.51226603E-05    3
 9.05145797E-10-1.17462830E-10-1.93324778E+04-7.95270000E-01                   4
H14Bz-hol-hcp   20180912C   6H   8          S100.0     1500.0    471.4         1
-8.11223966E+00 9.06940755E-02-8.31589909E-05 3.97955147E-08-7.73018308E-12    2
-1.86051236E+04 3.17118684E+01-1.56758796E-01 2.87616806E-02 5.29977344E-05    3
 6.27873050E-09-1.21872742E-10-1.92832118E+04-6.13589368E-01                   4
H1Bz-briB-fcc   20180912C   6H   7          S100.0     1500.0    642.9         1
-3.96570737E+00 7.27167048E-02-6.10494613E-05 2.66840680E-08-4.77135358E-12    2
-1.97347345E+04 1.11961187E+01 3.37174017E-01 8.16286885E-03 1.89059314E-04    3
-3.52293022E-07 1.97495302E-10-1.95710520E+04-1.88289678E+00                   4
H1Bz-briB-hcp   20180912C   6H   7          S100.0     1500.0    642.9         1
-3.95935799E+00 7.27083666E-02-6.10400451E-05 2.66782652E-08-4.77003237E-12    2
-2.00290194E+04 1.11633943E+01 3.42753489E-01 7.98197218E-03 1.90161920E-04    3
-3.54552498E-07 1.99021313E-10-1.98632498E+04-1.89112262E+00                   4
H1Bz-hol-fcc    20180912C   6H   7          S100.0     1500.0    528.6         1
-6.00265042E+00 8.08330838E-02-7.31028274E-05 3.43729432E-08-6.55521150E-12    2
-1.75653503E+04 2.19357643E+01 4.26062873E-01 1.61078992E-02 1.34690930E-04    3
-2.26916743E-07 9.88416319E-11-1.79212231E+04-2.38369293E+00                   4
H1Bz-hol-hcp    20180912C   6H   7          S100.0     1500.0    671.4         1
-3.11907861E+00 6.94888670E-02-5.68222321E-05 2.42563371E-08-4.25194676E-12    2
-1.85061065E+04 7.99927052E+00 7.46818960E-01 9.98911638E-03 1.70959366E-04    3
-3.13995334E-07 1.71998392E-10-1.82965078E+04-3.38593248E+00                   4
H1234Bz-briA-hcp20180912C   6H  10          S100.0     1500.0    357.1         1
-8.09711050E+00 9.36048771E-02-7.92874906E-05 3.57542995E-08-6.68023885E-12    2
-2.03869087E+04 3.51908442E+01-6.98895735E-01 8.95215504E-02-4.12842864E-04    3
 1.39638675E-06-1.57095707E-09-2.14200830E+04 1.35814324E-01                   4
H1234Bz-hol-hcp 20180912C   6H  10          S100.0     1500.0    357.1         1
-8.97321348E+00 9.73673144E-02-8.47713080E-05 3.91884950E-08-7.46889798E-12    2
-2.28976124E+04 3.84099080E+01-6.70035506E-01 7.81016568E-02-3.29753620E-04    3
 1.17459467E-06-1.35748046E-09-2.39636066E+04 3.57346871E-01                   4
H1245Bz-bri     20180912C   6H  10          S100.0     1500.0    357.1         1
-9.50107484E+00 9.94428351E-02-8.80178193E-05 4.13382050E-08-7.98024990E-12    2
-2.09835984E+04 4.11519315E+01-6.15137256E-01 7.32173304E-02-3.02078053E-04    3
 1.11423198E-06-1.30847707E-09-2.20866770E+04 9.35255175E-01                   4
H12Bz-holB-hcp  20180912C   6H   8          S100.0     1500.0    442.9         1
-7.21756125E+00 8.74412371E-02-7.93070570E-05 3.78095963E-08-7.34790164E-12    2
-1.45611376E+04 3.07156277E+01 9.50169591E-01 3.51954030E-02-1.97347603E-05    3
 2.07792287E-07-3.09004386E-10-1.53865540E+04-3.77717581E+00                   4
H12Bz-briB      20180912C   6H   8          S100.0     1500.0    442.9         1
-7.79635556E+00 9.03338842E-02-8.30378483E-05 3.98784584E-08-7.77967799E-12    2
-1.44276449E+04 3.08430571E+01-3.09513396E-01 4.07415507E-02-2.36035313E-05    3
 2.00604512E-07-3.00822741E-10-1.51480682E+04-4.77348552E-01                   4
H1Bz-briA-fcc   20180912C   6H   7          S100.0     1500.0    500.0         1
-6.36288038E+00 8.24102476E-02-7.54361749E-05 3.58860838E-08-6.91668289E-12    2
-1.81099230E+04 2.37205569E+01 4.85987563E-02 2.40062828E-02 9.02033021E-05    3
-1.23771508E-07 1.27719109E-11-1.85452157E+04-1.28246011E+00                   4
H1Bz-briA-hcp   20180912C   6H   7          S100.0     1500.0    500.0         1
-6.33444009E+00 8.24040944E-02-7.54998680E-05 3.59475651E-08-6.93321691E-12    2
-1.82108083E+04 2.36966185E+01 1.95409544E-01 2.26458221E-02 9.56823072E-05    3
-1.33554337E-07 1.92227873E-11-1.86535475E+04-1.74858196E+00                   4
END