THERMO ALL
       100       500      1500
Bz-bri          20180724C   6H   6O   0N   0S     100.0    1500.0   500.0      1
  -5.995437E+00   7.934106E-02  -7.521709E-05   3.668035E-08  -7.188614E-12    2
  -1.906674E+04   2.123143E+01   2.044741E-01   7.664535E-03   1.939338E-04    3
  -3.819006E-07   2.275834E-10  -1.934874E+04  -1.331620E+00                   4
Bz-hol-fcc      20180724C   6H   6O   0N   0S     100.0    1500.0   500.0      1
  -5.668826E+00   7.801355E-02  -7.358840E-05   3.579627E-08  -7.006194E-12    2
  -1.518563E+04   2.035056E+01   3.761801E-01   1.193492E-02   1.636196E-04    3
  -3.158437E-07   1.793507E-10  -1.550233E+04  -2.088630E+00                   4
Bz-hol-hcp      20180724C   6H   6O   0N   0S     100.0    1500.0   500.0      1
  -5.682552E+00   7.811765E-02  -7.375138E-05   3.589841E-08  -7.029247E-12    2
  -1.609798E+04   2.033350E+01   3.321966E-01   1.183840E-02   1.655471E-04    3
  -3.208679E-07   1.833074E-10  -1.640635E+04  -1.927239E+00                   4
CH-fcc          20180724C   6H  12O   0N   0S     100.0    1500.0   500.0      1
  -8.801165E+00   9.968265E-02  -7.907508E-05   3.341289E-08  -5.911557E-12    2
  -3.005300E+04   4.074130E+01   3.811018E+00   1.920378E-02   6.414475E-05    3
   3.488726E-08  -1.397036E-10  -3.145356E+04  -1.327245E+01                   4
CH-hcp          20180724C   6H  12O   0N   0S     100.0    1500.0   500.0      1
  -8.780460E+00   9.976428E-02  -7.924836E-05   3.353033E-08  -5.938909E-12    2
  -3.012771E+04   4.103364E+01   3.830509E+00   1.880962E-02   6.689171E-05    3
   2.896685E-08  -1.355104E-10  -3.152190E+04  -1.291407E+01                   4
H12345Bz-hol-fcc20180724C   6H  11O   0N   0S     100.0    1500.0   500.0      1
  -8.539536E+00   9.683558E-02  -7.909241E-05   3.435119E-08  -6.214834E-12    2
  -2.678103E+04   3.720136E+01   2.217389E+00   2.442765E-02   6.186527E-05    3
   5.150632E-09  -1.044918E-10  -2.791125E+04  -8.312193E+00                   4
H12345Bz-hol-hcp20180724C   6H  11O   0N   0S     100.0    1500.0   500.0      1
  -8.596367E+00   9.711784E-02  -7.952774E-05   3.462524E-08  -6.276761E-12    2
  -2.655194E+04   3.703599E+01   1.950433E+00   2.602378E-02   5.851102E-05    3
   7.929222E-09  -1.050361E-10  -2.765582E+04  -7.560613E+00                   4
H1234Bz-briA-fcc20180724C   6H  10O   0N   0S     100.0    1500.0   500.0      1
  -7.346564E+00   9.038940E-02  -7.463617E-05   3.282474E-08  -6.003926E-12    2
  -2.053531E+04   3.198375E+01   2.670846E+00   2.235489E-02   6.039423E-05    3
  -2.491900E-09  -9.149474E-11  -2.157983E+04  -1.032475E+01                   4
H1234Bz-briB    20180724C   6H  10O   0N   0S     100.0    1500.0   500.0      1
  -7.432472E+00   9.089634E-02  -7.508434E-05   3.295708E-08  -6.011345E-12    2
  -2.158890E+04   3.200796E+01   2.217084E+00   2.561586E-02   5.238476E-05    3
   6.573860E-09  -9.527039E-11  -2.259473E+04  -8.759673E+00                   4
H1234Bz-hol-fcc 20180724C   6H  10O   0N   0S     100.0    1500.0   500.0      1
  -7.846748E+00   9.225766E-02  -7.717549E-05   3.433226E-08  -6.334860E-12    2
  -2.246075E+04   3.389774E+01   2.349702E+00   1.920896E-02   8.455328E-05    3
  -5.445477E-08  -5.442953E-11  -2.347869E+04  -8.710010E+00                   4
H1235Bz-bri-fcc 20180724C   6H  10O   0N   0S     100.0    1500.0   500.0      1
  -8.741065E+00   9.559596E-02  -8.108797E-05   3.636262E-08  -6.736246E-12    2
  -2.369109E+04   3.557693E+01   9.272549E-01   2.127580E-02   1.025815E-04    3
  -1.096247E-07  -9.571367E-12  -2.458935E+04  -4.179394E+00                   4
H1235Bz-bri-hcp 20180724C   6H  10O   0N   0S     100.0    1500.0   500.0      1
  -8.689651E+00   9.553360E-02  -8.110637E-05   3.641114E-08  -6.752267E-12    2
  -2.353199E+04   3.530071E+01   8.933750E-01   2.138102E-02   1.037427E-04    3
  -1.137481E-07  -5.937932E-12  -2.441533E+04  -4.039974E+00                   4
H123Bz-bri-fcc  20180724C   6H   9O   0N   0S     100.0    1500.0   500.0      1
  -7.338910E+00   8.889894E-02  -7.639259E-05   3.468502E-08  -6.487364E-12    2
  -2.180309E+04   2.992665E+01   1.231313E+00   2.289559E-02   8.591607E-05    3
  -9.125893E-08  -1.293098E-11  -2.259250E+04  -5.272500E+00                   4
H123Bz-bri-hcp  20180724C   6H   9O   0N   0S     100.0    1500.0   500.0      1
  -7.291882E+00   8.875077E-02  -7.618236E-05   3.455634E-08  -6.458827E-12    2
  -2.213750E+04   2.980632E+01   1.349357E+00   2.181584E-02   9.039407E-05    3
  -9.968475E-08  -7.062776E-12  -2.293064E+04  -5.647367E+00                   4
H123Bz-hol-fcc  20180724C   6H   9O   0N   0S     100.0    1500.0   500.0      1
  -7.762830E+00   9.058574E-02  -7.854388E-05   3.589390E-08  -6.743118E-12    2
  -2.316171E+04   3.080763E+01   7.744700E-01   2.108938E-02   1.062642E-04    3
  -1.381017E-07   2.138986E-11  -2.390080E+04  -3.790934E+00                   4
H123Bz-hol-hcp  20180724C   6H   9O   0N   0S     100.0    1500.0   500.0      1
  -7.686199E+00   9.049674E-02  -7.851915E-05   3.590571E-08  -6.748843E-12    2
  -2.307140E+04   3.061096E+01   9.720102E-01   1.933832E-02   1.138831E-04    3
  -1.526334E-07   3.145642E-11  -2.381532E+04  -4.408645E+00                   4
H124Bz-bri-fcc  20180724C   6H   9O   0N   0S     100.0    1500.0   500.0      1
  -7.449163E+00   8.931061E-02  -7.681800E-05   3.488255E-08  -6.523665E-12    2
  -1.880596E+04   3.000660E+01   1.087198E+00   2.307699E-02   8.659092E-05    3
  -9.135562E-08  -1.439584E-11  -1.958197E+04  -4.969915E+00                   4
H124Bz-bri-hcp  20180724C   6H   9O   0N   0S     100.0    1500.0   500.0      1
  -7.425197E+00   8.927747E-02  -7.696774E-05   3.505428E-08  -6.573191E-12    2
  -1.875985E+04   3.009106E+01   1.348437E+00   2.063430E-02   9.564509E-05    3
  -1.069282E-07  -4.292234E-12  -1.955425E+04  -5.808362E+00                   4
H124Bz-hol-fcc  20180724C   6H   9O   0N   0S     100.0    1500.0   500.0      1
  -8.176919E+00   9.210247E-02  -8.074139E-05   3.726013E-08  -7.051851E-12    2
  -2.194726E+04   3.255711E+01   1.104570E+00   1.457600E-02   1.337783E-04    3
  -1.832938E-07   4.768528E-11  -2.273147E+04  -4.840956E+00                   4
H124Bz-hol-hcp  20180724C   6H   9O   0N   0S     100.0    1500.0   500.0      1
  -8.142829E+00   9.210593E-02  -8.077747E-05   3.728503E-08  -7.057446E-12    2
  -2.199942E+04   3.238707E+01   1.135845E+00   1.435638E-02   1.350767E-04    3
  -1.858540E-07   4.934147E-11  -2.277994E+04  -4.967021E+00                   4
H12Bz-briA-fcc  20180724C   6H   8O   0N   0S     100.0    1500.0   500.0      1
  -7.069356E+00   8.644189E-02  -7.685296E-05   3.578719E-08  -6.806735E-12    2
  -2.011073E+04   2.735291E+01   6.891920E-01   1.920135E-02   1.157143E-04    3
  -1.728002E-07   5.388638E-11  -2.072873E+04  -3.571255E+00                   4
H12Bz-briA-hcp  20180724C   6H   8O   0N   0S     100.0    1500.0   500.0      1
  -7.004782E+00   8.620051E-02  -7.655629E-05   3.562828E-08  -6.774813E-12    2
  -2.002717E+04   2.718366E+01   8.367006E-01   1.791320E-02   1.208484E-04    3
  -1.825949E-07   6.088739E-11  -2.065035E+04  -4.044606E+00                   4
H12Bz-holA-fcc  20180724C   6H   8O   0N   0S     100.0    1500.0   500.0      1
  -7.259138E+00   8.678618E-02  -7.753827E-05   3.632261E-08  -6.944107E-12    2
  -1.949017E+04   2.885055E+01   1.619770E+00   8.447574E-03   1.572164E-04    3
  -2.447621E-07   1.008531E-10  -2.020053E+04  -6.475878E+00                   4
H12Bz-holA-hcp  20180724C   6H   8O   0N   0S     100.0    1500.0   500.0      1
  -7.210283E+00   8.665778E-02  -7.736265E-05   3.621503E-08  -6.920080E-12    2
  -1.980485E+04   2.864398E+01   1.700476E+00   7.721483E-03   1.605550E-04    3
  -2.514920E-07   1.057414E-10  -2.051514E+04  -6.777001E+00                   4
H12Bz-holB-fcc  20180724C   6H   8O   0N   0S     100.0    1500.0   500.0      1
  -6.330197E+00   8.358363E-02  -7.347272E-05   3.402323E-08  -6.456215E-12    2
  -1.433972E+04   2.663423E+01   1.936113E+00   1.449999E-02   1.197694E-04    3
  -1.713361E-07   5.170228E-11  -1.504392E+04  -6.703172E+00                   4
H135Bz-hol-fcc  20180724C   6H   9O   0N   0S     100.0    1500.0   500.0      1
  -8.788628E+00   9.399507E-02  -8.273214E-05   3.821258E-08  -7.228698E-12    2
  -2.286555E+04   3.446370E+01   5.762393E-01   1.132959E-02   1.634635E-04    3
  -2.516282E-07   9.915614E-11  -2.360909E+04  -2.762561E+00                   4
H135Bz-hol-hcp  20180724C   6H   9O   0N   0S     100.0    1500.0   500.0      1
  -8.779751E+00   9.394432E-02  -8.262435E-05   3.813323E-08  -7.209195E-12    2
  -2.284393E+04   3.444905E+01   6.049465E-01   1.108554E-02   1.643907E-04    3
  -2.533194E-07   1.003509E-10  -2.358953E+04  -2.857419E+00                   4
H13Bz-bri-fcc   20180724C   6H   8O   0N   0S     100.0    1500.0   500.0      1
  -7.553999E+00   8.867847E-02  -8.006737E-05   3.774557E-08  -7.243514E-12    2
  -1.916311E+04   2.866051E+01   5.403164E-01   9.231426E-03   1.830212E-04    3
  -3.206461E-07   1.632525E-10  -1.970714E+04  -2.536067E+00                   4
H13Bz-bri-hcp   20180724C   6H   8O   0N   0S     100.0    1500.0   500.0      1
  -7.575311E+00   8.870794E-02  -8.008695E-05   3.775182E-08  -7.244220E-12    2
  -1.933644E+04   2.873371E+01   4.954109E-01   9.681212E-03   1.808866E-04    3
  -3.163909E-07   1.602292E-10  -1.988058E+04  -2.391817E+00                   4
H13Bz-hol-fcc   20180724C   6H   8O   0N   0S     100.0    1500.0   500.0      1
  -7.472431E+00   8.771265E-02  -7.850464E-05   3.675807E-08  -7.019908E-12    2
  -2.094806E+04   2.896297E+01   7.001898E-01   1.316391E-02   1.502795E-04    3
  -2.437026E-07   1.043928E-10  -2.156258E+04  -3.205279E+00                   4
H13Bz-hol-hcp   20180724C   6H   8O   0N   0S     100.0    1500.0   500.0      1
  -7.489964E+00   8.781162E-02  -7.861357E-05   3.680897E-08  -7.029047E-12    2
  -2.116481E+04   2.901651E+01   7.262744E-01   1.249560E-02   1.539415E-04    3
  -2.510453E-07   1.095273E-10  -2.177898E+04  -3.282839E+00                   4
H14Bz-briA      20180724C   6H   8O   0N   0S     100.0    1500.0   500.0      1
  -6.555599E+00   8.468845E-02  -7.484562E-05   3.476003E-08  -6.606184E-12    2
  -1.534094E+04   2.539750E+01   6.140670E-01   2.436933E-02   8.908415E-05    3
  -1.228047E-07   2.064257E-11  -1.592464E+04  -3.351392E+00                   4
H14Bz-briB      20180724C   6H   8O   0N   0S     100.0    1500.0   500.0      1
  -7.953202E+00   8.998168E-02  -8.174794E-05   3.871395E-08  -7.451860E-12    2
  -1.950458E+04   3.014082E+01   5.048694E-01   6.570130E-03   1.956121E-04    3
  -3.408038E-07   1.741066E-10  -2.006861E+04  -2.410629E+00                   4
H14Bz-hol-fcc   20180724C   6H   8O   0N   0S     100.0    1500.0   500.0      1
  -7.393052E+00   8.774366E-02  -7.892138E-05   3.714364E-08  -7.123183E-12    2
  -1.882872E+04   2.840165E+01   5.819540E-01   1.483560E-02   1.436994E-04    3
  -2.318506E-07   9.604639E-11  -1.942036E+04  -2.937395E+00                   4
H14Bz-hol-hcp   20180724C   6H   8O   0N   0S     100.0    1500.0   500.0      1
  -7.479608E+00   8.788258E-02  -7.898491E-05   3.714005E-08  -7.116940E-12    2
  -1.877138E+04   2.876659E+01   5.299569E-01   1.510655E-02   1.418268E-04    3
  -2.271696E-07   9.231091E-11  -1.937123E+04  -2.763817E+00                   4
H1Bz-briB-fcc   20180724C   6H   7O   0N   0S     100.0    1500.0   500.0      1
  -6.969932E+00   8.455796E-02  -7.831325E-05   3.759034E-08  -7.296055E-12    2
  -1.920348E+04   2.570797E+01   2.915216E-01   8.635592E-03   1.862249E-04    3
  -3.435501E-07   1.880280E-10  -1.963179E+04  -1.696285E+00                   4
H1Bz-briB-hcp   20180724C   6H   7O   0N   0S     100.0    1500.0   500.0      1
  -6.963789E+00   8.455163E-02  -7.830682E-05   3.758645E-08  -7.295182E-12    2
  -1.949784E+04   2.567577E+01   3.052013E-01   8.316237E-03   1.881548E-04    3
  -3.478364E-07   1.912832E-10  -1.992437E+04  -1.731664E+00                   4
H1Bz-hol-fcc    20180724C   6H   7O   0N   0S     100.0    1500.0   500.0      1
  -6.498918E+00   8.276858E-02  -7.610098E-05   3.637656E-08  -7.043955E-12    2
  -1.752603E+04   2.435541E+01   5.821327E-01   1.284259E-02   1.548290E-04    3
  -2.750823E-07   1.382651E-10  -1.798952E+04  -2.846795E+00                   4
H1Bz-hol-hcp    20180724C   6H   7O   0N   0S     100.0    1500.0   500.0      1
  -6.534184E+00   8.284211E-02  -7.613372E-05   3.637173E-08  -7.039700E-12    2
  -1.788749E+04   2.452346E+01   6.376335E-01   1.160555E-02   1.610861E-04    3
  -2.876664E-07   1.473006E-10  -1.835452E+04  -2.990756E+00                   4
H1234Bz-briA-hcp20180724C   6H  10O   0N   0S     100.0    1500.0   500.0      1
  -7.417690E+00   9.052859E-02  -7.466638E-05   3.277987E-08  -5.985091E-12    2
  -2.055943E+04   3.203935E+01   2.364109E+00   2.525008E-02   4.879123E-05    3
   1.856272E-08  -1.056619E-10  -2.158946E+04  -9.393815E+00                   4
H1234Bz-hol-hcp 20180724C   6H  10O   0N   0S     100.0    1500.0   500.0      1
  -7.962271E+00   9.283394E-02  -7.785700E-05   3.467439E-08  -6.399698E-12    2
  -2.312744E+04   3.369856E+01   2.071154E+00   2.066486E-02   8.214988E-05    3
  -5.254987E-08  -5.516087E-11  -2.412234E+04  -8.175324E+00                   4
H1245Bz-bri     20180724C   6H  10O   0N   0S     100.0    1500.0   500.0      1
  -8.281391E+00   9.398953E-02  -7.966109E-05   3.585877E-08  -6.677203E-12    2
  -2.124921E+04   3.545969E+01   2.083362E+00   1.669916E-02   1.030054E-04    3
  -9.174780E-08  -2.964302E-11  -2.224400E+04  -7.465527E+00                   4
H12Bz-holB-hcp  20180724C   6H   8O   0N   0S     100.0    1500.0   500.0      1
  -6.320511E+00   8.347993E-02  -7.331949E-05   3.393255E-08  -6.436597E-12    2
  -1.477452E+04   2.652064E+01   1.984002E+00   1.443460E-02   1.187314E-04    3
  -1.682595E-07   4.923446E-11  -1.548692E+04  -7.017532E+00                   4
H12Bz-briB      20180724C   6H   8O   0N   0S     100.0    1500.0   500.0      1
  -6.776960E+00   8.584755E-02  -7.624872E-05   3.547690E-08  -6.743717E-12    2
  -1.466255E+04   2.606998E+01   7.377229E-01   1.968349E-02   1.169132E-04    3
  -1.810783E-07   6.279671E-11  -1.524875E+04  -3.757471E+00                   4
H1Bz-briA-fcc   20180724C   6H   7O   0N   0S     100.0    1500.0   500.0      1
  -6.276613E+00   8.193160E-02  -7.481461E-05   3.555276E-08  -6.855398E-12    2
  -1.817875E+04   2.336154E+01   4.114043E-01   1.672760E-02   1.363613E-04    3
  -2.403646E-07   1.148993E-10  -1.862101E+04  -2.402720E+00                   4
H1Bz-briA-hcp   20180724C   6H   7O   0N   0S     100.0    1500.0   500.0      1
  -6.247156E+00   8.192224E-02  -7.487396E-05   3.561176E-08  -6.871429E-12    2
  -1.827989E+04   2.333243E+01   5.573492E-01   1.537823E-02   1.417780E-04    3
  -2.499816E-07   1.211877E-10  -1.872928E+04  -2.865586E+00                   4
END
