THERMO ALL
       100       500      1500
Bz-bri          20180923C   6H   6          S100.0     1500.0    1042.9        1
 2.56875032E+00 4.81548305E-02-3.30027003E-05 1.16212092E-08-1.68452775E-12    2
-2.08784763E+04-2.08892679E+01-2.25703136E+00 4.33471152E-02 2.97244869E-05    3
-8.34284308E-08 4.02530475E-11-1.91860286E+04 7.08605999E+00                   4
Bz-hol-fcc      20180923C   6H   6          S100.0     1500.0    1071.4        1
 2.93414578E+00 4.68485276E-02-3.15761732E-05 1.09417323E-08-1.56237201E-12    2
-1.70174694E+04-2.20089770E+01-1.85557455E+00 4.35269364E-02 2.31133287E-05    3
-7.14103357E-08 3.41292940E-11-1.53487939E+04 5.58032146E+00                   4
Bz-hol-hcp      20180923C   6H   6          S100.0     1500.0    1071.4        1
 2.95288372E+00 4.68305791E-02-3.15704074E-05 1.09418580E-08-1.56266240E-12    2
-1.79367044E+04-2.21846583E+01-1.93114246E+00 4.39293924E-02 2.24396156E-05    3
-7.09415130E-08 3.40135693E-11-1.62515302E+04 5.84803310E+00                   4
CH-fcc          20180923C   6H  12          S100.0     1500.0    1157.1        1
-2.36180871E+00 7.69113898E-02-4.88537163E-05 1.57637240E-08-2.08721037E-12    2
-3.14555778E+04 8.84828297E+00 3.10816685E+00 2.23871383E-02 9.62054207E-05    3
-1.32444691E-07 4.99501542E-11-3.13613481E+04-1.05383627E+01                   4
CH-hcp          20180923C   6H  12          S100.0     1500.0    1157.1        1
-2.30094463E+00 7.68426427E-02-4.88186932E-05 1.57550010E-08-2.08636399E-12    2
-3.15389297E+04 8.94398811E+00 3.08583500E+00 2.26208147E-02 9.58861663E-05    3
-1.32322249E-07 4.99540956E-11-3.14280028E+04-1.00377086E+01                   4
H12345Bz-hol-fcc20180923C   6H  11          S100.0     1500.0    1185.7        1
-1.32114891E+00 7.12749388E-02-4.51511531E-05 1.45154043E-08-1.91318567E-12    2
-2.83581154E+04 1.46339952E+00 1.13701653E+00 3.32686307E-02 6.51657594E-05    3
-1.01240489E-07 3.89359909E-11-2.78025924E+04-4.28272749E+00                   4
H12345Bz-hol-hcp20180923C   6H  11          S100.0     1500.0    1185.7        1
-1.27763805E+00 7.11930259E-02-4.50951715E-05 1.44984406E-08-1.91128347E-12    2
-2.81507533E+04 8.05044316E-01 8.85398977E-01 3.46797651E-02 6.23927695E-05    3
-9.89085613E-08 3.82213316E-11-2.75476907E+04-3.58493436E+00                   4
H1234Bz-briA-fcc20180923C   6H  10          S100.0     1500.0    1157.1        1
-3.43929520E-01 6.54579131E-02-4.13932128E-05 1.33328513E-08-1.76569907E-12    2
-2.20512205E+04-2.64044357E+00 1.81007041E+00 2.92037971E-02 6.68407667E-05    3
-1.02841186E-07 4.01282892E-11-2.14823952E+04-7.12240989E+00                   4
H1234Bz-briB    20180923C   6H  10          S100.0     1500.0    1185.7        1
-2.96457393E-01 6.56258801E-02-4.15422824E-05 1.33623455E-08-1.76354278E-12    2
-2.31456155E+04-3.31764339E+00 1.23831167E+00 3.36866716E-02 5.51170928E-05    3
-8.96534261E-08 3.48711049E-11-2.24910550E+04-5.11775220E+00                   4
H1234Bz-hol-fcc 20180923C   6H  10          S100.0     1500.0    1157.1        1
-3.55376286E-01 6.55302838E-02-4.14890432E-05 1.33826549E-08-1.77495697E-12    2
-2.40832625E+04-3.12685525E+00 1.13005500E+00 3.13744273E-02 6.49579948E-05    3
-1.02856264E-07 4.05341663E-11-2.33658480E+04-4.27714104E+00                   4
H1235Bz-bri-fcc 20180923C   6H  10          S100.0     1500.0    1157.1        1
-7.74217758E-01 6.71606440E-02-4.31244225E-05 1.40765113E-08-1.88524682E-12    2
-2.54197563E+04-3.79395586E+00-6.80319625E-01 3.93856999E-02 5.24344981E-05    3
-9.40049334E-08 3.81638560E-11-2.44593657E+04 1.57702504E+00                   4
H1235Bz-bri-hcp 20180923C   6H  10          S100.0     1500.0    1157.1        1
-6.92963176E-01 6.69779575E-02-4.29672291E-05 1.40143708E-08-1.87576012E-12    2
-2.52663666E+04-4.21345619E+00-7.41637527E-01 3.99292383E-02 5.12375687E-05    3
-9.29706564E-08 3.78476421E-11-2.42841369E+04 1.80913988E+00                   4
H123Bz-bri-fcc  20180923C   6H   9          S100.0     1500.0    1157.1        1
 5.32480386E-01 6.08007328E-02-3.88891434E-05 1.26751246E-08-1.69780699E-12    2
-2.35081917E+04-8.96643310E+00-1.83331752E-01 3.87333543E-02 4.31553110E-05    3
-8.22724817E-08 3.38487181E-11-2.24708706E+04-2.05681664E-01                   4
H123Bz-bri-hcp  20180923C   6H   9          S100.0     1500.0    1157.1        1
 5.28441715E-01 6.08311849E-02-3.89136171E-05 1.26822300E-08-1.69843693E-12    2
-2.38311496E+04-8.83410838E+00-1.13531011E-01 3.84015573E-02 4.38371123E-05    3
-8.28874873E-08 3.40515583E-11-2.28070980E+04-4.17769870E-01                   4
H123Bz-hol-fcc  20180923C   6H   9          S100.0     1500.0    1157.1        1
 4.37796473E-01 6.12653118E-02-3.93620879E-05 1.28745441E-08-1.72919716E-12    2
-2.49381344E+04-9.69988302E+00-9.60386294E-01 4.17855118E-02 3.93497665E-05    3
-8.04635605E-08 3.36300126E-11-2.37660884E+04 2.36376489E+00                   4
H123Bz-hol-hcp  20180923C   6H   9          S100.0     1500.0    1128.6        1
 3.38692164E-01 6.16900131E-02-3.98982437E-05 1.31564596E-08-1.78330692E-12    2
-2.47991264E+04-8.99261770E+00-6.79744754E-01 3.93596804E-02 4.73874943E-05    3
-9.09234491E-08 3.82095043E-11-2.36845541E+04 1.43000939E+00                   4
H124Bz-bri-fcc  20180923C   6H   9          S100.0     1500.0    1157.1        1
 4.34237093E-01 6.11568527E-02-3.92177431E-05 1.28038547E-08-1.71680435E-12    2
-2.05134140E+04-8.94363999E+00-3.49243659E-01 3.92155288E-02 4.30295028E-05    3
-8.26615424E-08 3.40840460E-11-1.94603599E+04 1.66223218E-01                   4
H124Bz-bri-hcp  20180923C   6H   9          S100.0     1500.0    1157.1        1
 5.68886863E-01 6.07126170E-02-3.88052278E-05 1.26390803E-08-1.69194222E-12    2
-2.04912102E+04-9.40161036E+00-1.84392257E-01 3.81910023E-02 4.52442934E-05    3
-8.48097191E-08 3.48372513E-11-1.94286250E+04-3.42006636E-01                   4
H124Bz-hol-fcc  20180923C   6H   9          S100.0     1500.0    1128.6        1
 3.22241379E-01 6.15649222E-02-3.97687600E-05 1.31099622E-08-1.77763220E-12    2
-2.37795796E+04-9.38021044E+00-7.71832764E-01 3.77605749E-02 5.34843264E-05    3
-9.82303857E-08 4.10462517E-11-2.25922415E+04 1.76797469E+00                   4
H124Bz-hol-hcp  20180923C   6H   9          S100.0     1500.0    1100.0        1
 1.59376388E-01 6.21609031E-02-4.04693708E-05 1.34643924E-08-1.84419043E-12    2
-2.37782627E+04-8.54172136E+00-5.70151947E-01 3.55612321E-02 6.15903307E-05    3
-1.09413253E-07 4.61563792E-11-2.26482574E+04 1.02803900E+00                   4
H12Bz-briA-fcc  20180923C   6H   8          S100.0     1500.0    1128.6        1
 1.22931615E+00 5.66590555E-02-3.69493494E-05 1.22956757E-08-1.68169707E-12    2
-2.18990833E+04-1.36008962E+01-1.05886302E+00 4.12194055E-02 3.64396533E-05    3
-7.95784870E-08 3.43885774E-11-2.05951054E+04 2.56222243E+00                   4
H12Bz-briA-hcp  20180923C   6H   8          S100.0     1500.0    1128.6        1
 1.24956576E+00 5.65700313E-02-3.68509844E-05 1.22505748E-08-1.67405823E-12    2
-2.18053848E+04-1.35500051E+01-9.63961065E-01 4.07580617E-02 3.72749229E-05    3
-8.02826889E-08 3.46153680E-11-2.05145737E+04 2.26623000E+00                   4
H12Bz-holA-fcc  20180923C   6H   8          S100.0     1500.0    1100.0        1
 1.12094881E+00 5.65710913E-02-3.69160688E-05 1.23421709E-08-1.70083965E-12    2
-2.12864112E+04-1.24630252E+01-3.70146711E-01 3.45902935E-02 5.49764267E-05    3
-1.00964974E-07 4.30454878E-11-2.00570946E+04 4.55460797E-01                   4
H12Bz-holA-hcp  20180923C   6H   8          S100.0     1500.0    1100.0        1
 1.12789928E+00 5.65906264E-02-3.69365309E-05 1.23488480E-08-1.70150335E-12    2
-2.15917668E+04-1.24626126E+01-3.26336126E-01 3.44519909E-02 5.52471344E-05    3
-1.01219893E-07 4.31358724E-11-2.03702629E+04 2.77938966E-01                   4
H12Bz-holB-fcc  20180923C   6H   8          S100.0     1500.0    1128.6        1
 1.56806792E+00 5.52433434E-02-3.55143543E-05 1.16843265E-08-1.58421503E-12    2
-1.60391502E+04-1.23452806E+01 2.56666915E-01 3.55177122E-02 4.48543233E-05    3
-8.51723091E-08 3.57994599E-11-1.49125568E+04-8.00870744E-01                   4
H135Bz-hol-fcc  20180923C   6H   9          S100.0     1500.0    1100.0        1
-3.39406878E-01 6.35079775E-02-4.16975655E-05 1.39636351E-08-1.92179137E-12    2
-2.46769018E+04-7.18808438E+00-1.53892377E+00 3.87908787E-02 5.78249207E-05    3
-1.07664177E-07 4.59502842E-11-2.34592696E+04 4.62974494E+00                   4
H135Bz-hol-hcp  20180923C   6H   9          S100.0     1500.0    1100.0        1
-3.66883257E-01 6.35894946E-02-4.17690322E-05 1.39908003E-08-1.92570149E-12    2
-2.46473916E+04-7.02411571E+00-1.51869546E+00 3.86802781E-02 5.80477128E-05    3
-1.07840492E-07 4.59999771E-11-2.34393430E+04 4.56359462E+00                   4
H13Bz-bri-fcc   20180923C   6H   8          S100.0     1500.0    1100.0        1
 1.16000494E+00 5.71857332E-02-3.76577385E-05 1.26732802E-08-1.75441990E-12    2
-2.10288168E+04-1.42787267E+01-1.95496234E+00 4.32443501E-02 3.96055600E-05    3
-8.90410651E-08 3.96130452E-11-1.95415162E+04 6.11255697E+00                   4
H13Bz-bri-hcp   20180923C   6H   8          S100.0     1500.0    1100.0        1
 1.14003100E+00 5.72127326E-02-3.76760368E-05 1.26798374E-08-1.75539637E-12    2
-2.12025179E+04-1.42125730E+01-1.97508790E+00 4.33092131E-02 3.94320388E-05    3
-8.88320658E-08 3.95275168E-11-1.97159552E+04 6.17316377E+00                   4
H13Bz-hol-fcc   20180923C   6H   8          S100.0     1500.0    1100.0        1
 9.27092182E-01 5.74101778E-02-3.77418873E-05 1.26821244E-08-1.75327202E-12    2
-2.27472570E+04-1.24410965E+01-1.32376816E+00 3.98340238E-02 4.49073905E-05    3
-9.22881117E-08 4.02585766E-11-2.14168368E+04 3.84719006E+00                   4
H13Bz-hol-hcp   20180923C   6H   8          S100.0     1500.0    1100.0        1
 9.13111307E-01 5.74934481E-02-3.78271967E-05 1.27177220E-08-1.75879466E-12    2
-2.29647630E+04-1.24046675E+01-1.34258776E+00 3.98510850E-02 4.51389183E-05    3
-9.26785517E-08 4.04325024E-11-2.16313941E+04 3.92198460E+00                   4
H14Bz-briA      20180923C   6H   8          S100.0     1500.0    1157.1        1
 1.68613890E+00 5.52086510E-02-3.54472748E-05 1.16121740E-08-1.56412388E-12    2
-1.71239975E+04-1.53048686E+01-9.74570195E-01 4.35127435E-02 2.62365940E-05    3
-6.59957077E-08 2.85854770E-11-1.57969041E+04 2.26820606E+00                   4
H14Bz-briB      20180923C   6H   8          S100.0     1500.0    1071.4        1
 8.37837446E-01 5.80843367E-02-3.86499821E-05 1.31659770E-08-1.84638349E-12    2
-2.13774435E+04-1.31387966E+01-1.93489002E+00 4.02290839E-02 5.19431265E-05    3
-1.05967119E-07 4.72179060E-11-1.99064251E+04 6.01633321E+00                   4
H14Bz-hol-fcc   20180923C   6H   8          S100.0     1500.0    1100.0        1
 1.21495619E+00 5.66763239E-02-3.71127636E-05 1.24415569E-08-1.71803286E-12    2
-2.06728106E+04-1.40250686E+01-1.38172231E+00 4.06003630E-02 4.30600700E-05    3
-9.06899245E-08 3.97774841E-11-1.92776102E+04 3.90623751E+00                   4
H14Bz-hol-hcp   20180923C   6H   8          S100.0     1500.0    1100.0        1
 1.10785656E+00 5.68964822E-02-3.72926737E-05 1.25103122E-08-1.72829101E-12    2
-2.06113739E+04-1.35608964E+01-1.40610989E+00 4.04218172E-02 4.35822670E-05    3
-9.11573556E-08 3.99173520E-11-1.92295406E+04 3.98790967E+00                   4
H1Bz-briB-fcc   20180923C   6H   7          S100.0     1500.0    1071.4        1
 1.79685424E+00 5.27640762E-02-3.53947164E-05 1.21691583E-08-1.72228478E-12    2
-2.10707334E+04-1.74527893E+01-2.13891364E+00 4.27214635E-02 3.66933205E-05    3
-8.85155426E-08 4.07589490E-11-1.94699823E+04 6.67266008E+00                   4
H1Bz-briB-hcp   20180923C   6H   7          S100.0     1500.0    1071.4        1
 1.80015790E+00 5.27661515E-02-3.53985329E-05 1.21707611E-08-1.72250373E-12    2
-2.13643991E+04-1.74705965E+01-2.14973783E+00 4.27875091E-02 3.65985633E-05    3
-8.84715766E-08 4.07573730E-11-1.97615177E+04 6.72015661E+00                   4
H1Bz-hol-fcc    20180923C   6H   7          S100.0     1500.0    1100.0        1
 2.18721348E+00 5.14227708E-02-3.39511860E-05 1.14901629E-08-1.60174817E-12    2
-1.93868556E+04-1.84547236E+01-1.59796108E+00 4.25203554E-02 3.05507110E-05    3
-7.69961160E-08 3.49437724E-11-1.78377390E+04 4.70394908E+00                   4
H1Bz-hol-hcp    20180923C   6H   7          S100.0     1500.0    1100.0        1
 2.13393141E+00 5.15589994E-02-3.40683113E-05 1.15351329E-08-1.60836988E-12    2
-1.97443966E+04-1.81978085E+01-1.61450714E+00 4.23952757E-02 3.11045127E-05    3
-7.76683559E-08 3.52070520E-11-1.81996849E+04 4.80453940E+00                   4
H1234Bz-briA-hcp20180923C   6H  10          S100.0     1500.0    1185.7        1
-2.95666583E-01 6.52881533E-02-4.11372062E-05 1.31794267E-08-1.73364669E-12    2
-2.21116042E+04-3.21120978E+00 1.46350379E+00 3.21207227E-02 5.79796979E-05    3
-9.19498565E-08 3.55599336E-11-2.14897825E+04-6.02206801E+00                   4
H1234Bz-hol-hcp 20180923C   6H  10          S100.0     1500.0    1157.1        1
-4.01123735E-01 6.58650170E-02-4.18557313E-05 1.35435181E-08-1.80095008E-12    2
-2.47660818E+04-3.67285129E+00 8.51316905E-01 3.28398013E-02 6.25289171E-05    3
-1.01036572E-07 4.00145374E-11-2.40095623E+04-3.74272193E+00                   4
H1245Bz-bri     20180923C   6H  10          S100.0     1500.0    1128.6        1
-4.46948604E-01 6.58793473E-02-4.19554140E-05 1.36400374E-08-1.82600248E-12    2
-2.29364410E+04-3.21106244E+00 7.71217495E-01 3.07295963E-02 7.20599009E-05    3
-1.14393809E-07 4.59591407E-11-2.21279554E+04-2.74649648E+00                   4
H12Bz-holB-hcp  20180923C   6H   8          S100.0     1500.0    1128.6        1
 1.55265675E+00 5.52332059E-02-3.54901368E-05 1.16715246E-08-1.58195718E-12    2
-1.64685689E+04-1.23359725E+01 3.26208253E-01 3.51143507E-02 4.55479483E-05    3
-8.56812992E-08 3.59368923E-11-1.53564350E+04-1.18826705E+00                   4
H12Bz-briB      20180923C   6H   8          S100.0     1500.0    1128.6        1
 1.43303778E+00 5.63802858E-02-3.67698943E-05 1.22363826E-08-1.67359591E-12    2
-1.64308012E+04-1.44451465E+01-1.04614037E+00 4.23995337E-02 3.30561280E-05    3
-7.61174721E-08 3.31746597E-11-1.51134080E+04 2.49188365E+00                   4
H1Bz-briA-fcc   20180923C   6H   7          S100.0     1500.0    1100.0        1
 2.09610672E+00 5.17276637E-02-3.42040916E-05 1.15768906E-08-1.61258551E-12    2
-1.99706493E+04-1.79067686E+01-1.55516157E+00 4.32345009E-02 2.76254723E-05    3
-7.32671654E-08 3.34253291E-11-1.84783439E+04 4.41662205E+00                   4
H1Bz-briA-hcp   20180923C   6H   7          S100.0     1500.0    1100.0        1
 2.15673255E+00 5.16014615E-02-3.41026773E-05 1.15391405E-08-1.60711904E-12    2
-2.00785911E+04-1.80886949E+01-1.46610927E+00 4.27435268E-02 2.88330498E-05    3
-7.45536457E-08 3.39081851E-11-1.85843373E+04 4.14692694E+00                   4
END