THERMO ALL
       100       500      1500
H2O                     H   2O   1          G500.0     1100.0    732.7         1
 3.70543481E+00 8.54137246E-04 3.34292848E-07 2.02846887E-10-1.73628721E-13    2
-3.01674582E+04 1.34436017E+00 4.03715750E+00-1.38517941E-03 5.83000681E-06    3
-5.66640574E-09 2.14188117E-12-3.02049051E+04-7.56455760E-02                   4
H2                      H   2               G500.0     1100.0    793.9         1
 3.57873770E+00-1.16437833E-04-3.49449029E-07 7.15871327E-10-2.50161761E-13    2
-1.02613421E+03-4.66775358E+00 3.41355312E+00 5.91244332E-04-1.45176091E-06    3
 1.44294444E-09-4.15511238E-13-9.95932819E+02-3.88411999E+00                   4
O2                      O   2               G500.0     1100.0    793.9         1
 3.46818353E+00-9.10786914E-04 3.24756131E-06-2.46398376E-09 6.18417957E-13    2
-4.97515053E+03 5.10858876E+00 4.01927922E+00-3.50201437E-03 7.80500748E-06    3
-6.01382242E-09 1.65019410E-12-5.06875355E+03 2.53951238E+00                   4
MO(S)                   O   1Pt  1          S500.0     1100.0    744.9         1
 1.11334370E+00 5.33754241E-03-6.41813282E-06 3.66789837E-09-8.18828477E-13    2
 5.46378806E+04-6.42340754E+00-4.28588020E-01 1.37897960E-02-2.39419253E-05    3
 1.99472856E-08-6.53329497E-12 5.48649049E+04 5.36403513E-01                   4
MO(B)                   Pt  1               S500.0     1100.0    744.9         1
 1.11334370E+00 5.33754241E-03-6.41813282E-06 3.66789837E-09-8.18828477E-13    2
 7.26616945E+02-6.42340754E+00-4.28588020E-01 1.37897960E-02-2.39419253E-05    3
 1.99472856E-08-6.53329497E-12 9.53641227E+02 5.36403513E-01                   4
V-MO(S)                 Pt  1               S500.0     1100.0    806.1         1
 0.00000000E+00 0.00000000E+00 0.00000000E+00 0.00000000E+00 0.00000000E+00    2
 8.12316548E+04 0.00000000E+00 0.00000000E+00 0.00000000E+00 0.00000000E+00    3
 0.00000000E+00 0.00000000E+00 8.12316548E+04 0.00000000E+00                   4
MO_bulk(S)              O   1Pt  1          S500.0     1100.0    744.9         1
 1.11334370E+00 5.33754241E-03-6.41813282E-06 3.66789837E-09-8.18828477E-13    2
 5.46378806E+04-6.42340754E+00-4.28588020E-01 1.37897960E-02-2.39419253E-05    3
 1.99472856E-08-6.53329497E-12 5.48649049E+04 5.36403513E-01                   4
MO_bulk(B)              Pt  1               S500.0     1100.0    744.9         1
 1.11334370E+00 5.33754241E-03-6.41813282E-06 3.66789837E-09-8.18828477E-13    2
 7.26616945E+02-6.42340754E+00-4.28588020E-01 1.37897960E-02-2.39419253E-05    3
 1.99472856E-08-6.53329497E-12 9.53641227E+02 5.36403513E-01                   4
V-MO_bulk(S)            Pt  1               S500.0     1100.0    806.1         1
 0.00000000E+00 0.00000000E+00 0.00000000E+00 0.00000000E+00 0.00000000E+00    2
 8.12316548E+04 0.00000000E+00 0.00000000E+00 0.00000000E+00 0.00000000E+00    3
 0.00000000E+00 0.00000000E+00 8.12316548E+04 0.00000000E+00                   4
END