THERMO ALL
       100       500      1500
N2              20200130N   2               G298.0     800.0     523.4         1
 3.75207309E+00-1.30159027E-03 1.83848785E-06-1.17413430E-10-3.65391117E-13    2
-1.67466046E+02 2.02487235E+00 3.41792195E+00 8.91688129E-04-3.46864753E-06    3
 5.44691795E-09-2.46804017E-12-1.27218598E+02 3.46925446E+00                   4
NH3             20200130N   1H   3          G298.0     800.0     533.6         1
 3.29427463E+00 2.57481517E-03 5.20883059E-07-1.00678313E-09 3.59356180E-13    2
-8.39739729E+03 3.59518179E+00 4.57124680E+00-6.89724277E-03 2.70972941E-05    3
-3.44331645E-08 1.62568430E-11-8.53630392E+03-1.78236482E+00                   4
H2              20200130H   2               G298.0     800.0     574.6         1
 3.37903251E+00 7.92301907E-04-1.88662952E-06 1.85974220E-09-5.68447254E-13    2
 1.70231785E+03-3.75384878E+00 3.50717925E+00-8.50397135E-05 3.79570576E-07    3
-7.57943298E-10 5.72423558E-13 1.68725521E+03-4.30359616E+00                   4
N2(S)           20200130N   2               S298.0     800.0     482.4         1
 3.42605836E+00 5.03710708E-03-6.92689694E-06 6.03246113E-09-2.18862675E-12    2
-7.10908593E+03-1.39234158E+01 4.40553502E-01 2.97759950E-02-8.47698148E-05    3
 1.16195177E-07-6.12938589E-11-6.81713036E+03-1.67535850E+00                   4
N(S)            20200130N   1               S298.0     800.0     502.9         1
-8.29107669E-01 2.64469843E-02-4.38832016E-05 3.47600781E-08-1.07819310E-11    2
-1.10025322E+04 5.84860624E-01-5.23174593E+00 6.11537184E-02-1.47762309E-04    3
 1.74618161E-07-8.21997526E-11-1.05501788E+04 1.88655390E+01                   4
H(S)            20200130H   1               S298.0     800.0     461.9         1
-2.11302416E+00 1.72572991E-02-2.60046478E-05 1.92388088E-08-5.68363784E-12    2
-6.07714366E+03 8.35375655E+00-1.41307531E+00 1.00687718E-02 1.09758988E-06    3
-2.55216914E-08 2.17566538E-11-6.12991563E+03 5.64663049E+00                   4
NH3(S)          20200130N   1H   3          S298.0     800.0     461.9         1
 1.58312977E+00 1.57753291E-02-1.71587153E-05 1.15414255E-08-3.21958978E-12    2
-1.42567384E+04-6.35076167E+00 1.16759533E+00 2.05732170E-02-3.66958772E-05    3
 4.56112325E-08-2.49628744E-11-1.42311185E+04-4.80504278E+00                   4
NH2(S)          20200130N   1H   2          S298.0     800.0     523.4         1
-6.86530719E-01 2.43298826E-02-3.68705157E-05 2.88483783E-08-8.86963660E-12    2
-1.19475373E+04 1.03191178E+00-2.56305506E+00 3.84726874E-02-7.73503504E-05    3
 8.09903199E-08-3.43595838E-11-1.17458655E+04 8.90806366E+00                   4
NH(S)           20200130N   1H   1          S298.0     800.0     543.9         1
-1.33660645E+00 2.33106600E-02-3.77180253E-05 2.97486446E-08-9.12157176E-12    2
-1.48903410E+04 3.58875263E+00-3.73687435E+00 4.05226889E-02-8.44226964E-05    3
 8.65932632E-08-3.53036247E-11-1.46202196E+04 1.37781588E+01                   4
TS1_NH3(S)      20200130N   1H   3          S298.0     800.0     451.7         1
 5.21221040E-02 2.11615812E-02-2.49542203E-05 1.66204937E-08-4.59897868E-12    2
-2.50090675E+03-1.43098814E+00 4.96418515E-02 2.15674671E-02-2.75604959E-05    3
 2.23225323E-08-8.79255935E-12-2.50469914E+03-1.46480767E+00                   4
TS2_NH2(S)      20200130N   1H   2          S298.0     800.0     554.1         1
-1.48538501E+00 2.67287608E-02-3.86606417E-05 2.81558194E-08-8.15140597E-12    2
-5.88676392E+03 4.23478570E+00-2.58881424E+00 3.43781302E-02-5.87419101E-05    3
 5.18321984E-08-1.87340797E-11-5.75828326E+03 8.95651588E+00                   4
TS3_NH(S)       20200130N   1H   1          S298.0     800.0     482.4         1
-1.24242592E-01 1.65859456E-02-2.43704704E-05 1.77594067E-08-5.19878424E-12    2
-2.53350782E+03-1.18098922E+00-1.80701218E+00 3.07479132E-02-6.96816870E-05    3
 8.30020912E-08-4.08170225E-11-2.37120889E+03 5.69776360E+00                   4
TS4_N2(S)       20200130N   2               S298.0     800.0     482.4         1
 1.52431744E+00 1.40315985E-02-2.40821843E-05 1.96281604E-08-6.24114074E-12    2
 2.15756709E+04-8.60900953E+00-1.75107618E+00 4.12189598E-02-1.09828935E-04    3
 1.41320046E-07-7.17404084E-11 2.18956564E+04 4.82385770E+00                   4
RU(S)           20200130RU  1               S298.0     800.0     554.1         1
 0.00000000E+00 0.00000000E+00 0.00000000E+00 0.00000000E+00 0.00000000E+00    2
 0.00000000E+00 0.00000000E+00 0.00000000E+00 0.00000000E+00 0.00000000E+00    3
 0.00000000E+00 0.00000000E+00 0.00000000E+00 0.00000000E+00                   4
RU(B)           20200130RU  1               S298.0     800.0     554.1         1
 0.00000000E+00 0.00000000E+00 0.00000000E+00 0.00000000E+00 0.00000000E+00    2
 0.00000000E+00 0.00000000E+00 0.00000000E+00 0.00000000E+00 0.00000000E+00    3
 0.00000000E+00 0.00000000E+00 0.00000000E+00 0.00000000E+00                   4
END