THERMO ALL
       100       500      1500
H2O                     C   0H   2O   1N   0G500.0     1100.0    734.4         1
 3.70895406E+00 8.39942018E-04 3.55467319E-07 1.89025163E-10-1.70304622E-13    2
-3.02340708E+04 1.32709385E+00 4.00600972E+00-1.17858414E-03 5.31823930E-06    3
-5.10525989E-09 1.91207856E-12-3.02670869E+04 5.84684353E-02                   4
H2                      C   0H   2O   0N   0G500.0     1100.0    787.5         1
 3.57318744E+00-9.25123830E-05-3.87999256E-07 7.43388452E-10-2.57503662E-13    2
-1.06304484E+03-4.64143341E+00 3.41145901E+00 6.04212298E-04-1.48168647E-06    3
 1.47344892E-09-4.27102383E-13-1.03360132E+03-3.87497149E+00                   4
O2                      C   0H   0O   2N   0G500.0     1100.0    801.5         1
 3.45165919E+00-8.42779280E-04 3.14302635E-06-2.39285663E-09 6.00341673E-13    2
-5.02766528E+03 5.18794414E+00 4.02940017E+00-3.56613926E-03 7.95644866E-06    3
-6.17183115E-09 1.71165315E-12-5.12573753E+03 2.49550958E+00                   4
MO(S)                   C   0H   0O   1N   0S500.0     1100.0    738.4         1
 1.10285499E+00 5.38415689E-03-6.49546456E-06 3.72465646E-09-8.34379564E-13    2
 5.46119663E+04-6.37368175E+00-4.09013508E-01 1.36638515E-02-2.36394515E-05    3
 1.96258900E-08-6.40580002E-12 5.48346883E+04 4.51569738E-01                   4
MO(B)                   C   0H   0O   0N   0S500.0     1100.0    738.4         1
 1.10285499E+00 5.38415689E-03-6.49546456E-06 3.72465646E-09-8.34379564E-13    2
 7.28583508E+02-6.37368175E+00-4.09013508E-01 1.36638515E-02-2.36394515E-05    3
 1.96258900E-08-6.40580002E-12 9.51305538E+02 4.51569738E-01                   4
V-MO(S)                 C   0H   0O   0N   0S500.0     1100.0    800.5         1
 0.00000000E+00 0.00000000E+00 0.00000000E+00 0.00000000E+00 0.00000000E+00    2
 8.12316548E+04 0.00000000E+00 0.00000000E+00 0.00000000E+00 0.00000000E+00    3
 0.00000000E+00 0.00000000E+00 8.12316548E+04 0.00000000E+00                   4
MO_bulk(S)              C   0H   0O   1N   0S500.0     1100.0    738.4         1
 1.10285499E+00 5.38415689E-03-6.49546456E-06 3.72465646E-09-8.34379564E-13    2
 5.46119663E+04-6.37368175E+00-4.09013508E-01 1.36638515E-02-2.36394515E-05    3
 1.96258900E-08-6.40580002E-12 5.48346883E+04 4.51569738E-01                   4
MO_bulk(B)              C   0H   0O   0N   0S500.0     1100.0    738.4         1
 1.10285499E+00 5.38415689E-03-6.49546456E-06 3.72465646E-09-8.34379564E-13    2
 7.28583508E+02-6.37368175E+00-4.09013508E-01 1.36638515E-02-2.36394515E-05    3
 1.96258900E-08-6.40580002E-12 9.51305538E+02 4.51569738E-01                   4
V-MO_bulk(S)            C   0H   0O   0N   0S500.0     1100.0    800.5         1
 0.00000000E+00 0.00000000E+00 0.00000000E+00 0.00000000E+00 0.00000000E+00    2
 8.12316548E+04 0.00000000E+00 0.00000000E+00 0.00000000E+00 0.00000000E+00    3
 0.00000000E+00 0.00000000E+00 8.12316548E+04 0.00000000E+00                   4
N2                      C   0H   0O   0N   2G300.0     5000.0    1000.0        1
 2.92664000E+00 1.48797680E-03-5.68476000E-07 1.00970380E-10-6.75335100E-15    2
-9.22797700E+02 5.98052800E+00 3.29867700E+00 1.40824040E-03-3.96322200E-06    3
 5.64151500E-09-2.44485400E-12-1.02089990E+03 3.95037200E+00                   4
END